ch322
     RDKit          3D

 33 37  0  0  0  0  0  0  0  0999 V2000
    3.1510   -0.3690   54.7500 C   0  0  0  0  0  0  0  0  0  0  0  0
    2.2630    0.6840   54.6650 C   0  0  0  0  0  0  0  0  0  0  0  0
    3.0530   -1.3650   53.7890 C   0  0  0  0  0  0  0  0  0  0  0  0
    0.4930    7.7430   52.6930 C   0  0  0  0  0  0  0  0  0  0  0  0
    1.2380    3.9050   51.0830 C   0  0  0  0  0  0  0  0  0  0  0  0
    1.2890    0.6580   53.6900 C   0  0  0  0  0  0  0  0  0  0  0  0
    2.2260   -1.2800   52.6980 C   0  0  0  0  0  0  0  0  0  0  0  0
    0.9670    2.5570   50.9940 C   0  0  0  0  0  0  0  0  0  0  0  0
    1.4790    8.5650   53.2020 C   0  0  0  0  0  0  0  0  0  0  0  0
    0.8180    6.8510   51.6950 C   0  0  0  0  0  0  0  0  0  0  0  0
    2.5550    2.3020   49.2960 C   0  0  0  0  0  0  0  0  0  0  0  0
    2.8320    3.6690   49.3680 C   0  0  0  0  0  0  0  0  0  0  0  0
    2.1930    4.4500   50.2930 C   0  0  0  0  0  0  0  0  0  0  0  0
    1.2880   -0.2390   52.6180 C   0  0  0  0  0  0  0  0  0  0  0  0
    1.5820    1.7170   50.1010 C   0  0  0  0  0  0  0  0  0  0  0  0
    2.7720    8.4610   52.7090 C   0  0  0  0  0  0  0  0  0  0  0  0
    2.1580    6.7270   51.3010 C   0  0  0  0  0  0  0  0  0  0  0  0
    3.6740    4.5720   48.5520 C   0  0  0  0  0  0  0  0  0  0  0  0
    5.5910    9.1870   58.8280 C   0  0  0  0  0  0  0  0  0  0  0  0
    5.0690   10.6240   58.6300 C   0  0  0  0  0  0  0  0  0  0  0  0
    5.1530    8.4030   57.5860 C   0  0  0  0  0  0  0  0  0  0  0  0
    4.5620   10.6850   57.2010 C   0  0  0  0  0  0  0  0  0  0  0  0
    3.7250    5.8570   49.4010 C   0  0  0  0  0  0  0  0  0  0  0  0
    4.0230    9.2640   57.0300 C   0  0  0  0  0  0  0  0  0  0  0  0
    3.8700    9.4050   53.1590 C   0  0  0  0  0  0  0  0  0  0  0  0
    3.5320    8.9480   55.6200 C   0  0  0  0  0  0  0  0  0  0  0  0
    4.5570    9.0230   54.4750 C   0  0  0  0  0  0  0  0  0  0  0  0
    3.0740    7.5400   51.8040 N   0  0  0  0  0  0  0  0  0  0  0  0
    2.6010    5.7760   50.3360 N   0  0  0  0  0  0  0  0  0  0  0  0
    0.4090   -0.0690   51.6400 N   0  0  0  0  0  0  0  0  0  0  0  0
    1.9010   -0.9280   49.8690 O   0  0  0  0  0  0  0  0  0  0  0  0
   -0.2340    0.0460   49.2330 O   0  0  0  0  0  0  0  0  0  0  0  0
    0.8960    0.0500   50.1180 S   0  0  2  0  0  0  0  0  0  0  0  0
  1  2  2  0
  1  3  1  0
  2  6  1  0
  3  7  2  0
  4  9  2  0
  4 10  1  0
  5  8  2  0
  5 13  1  0
  6 14  2  0
  7 14  1  0
  8 15  1  0
  9 16  1  0
 10 17  2  0
 11 12  1  0
 11 15  2  0
 12 13  2  0
 12 18  1  0
 13 29  1  0
 14 30  1  0
 15 33  1  0
 16 25  1  0
 16 28  2  0
 17 28  1  0
 17 29  1  0
 18 23  1  0
 19 20  1  0
 19 21  1  0
 20 22  1  0
 21 24  1  0
 22 24  1  0
 23 29  1  0
 24 26  1  0
 25 27  1  0
 26 27  1  0
 30 33  2  0
 31 33  2  0
 33 32  1  6
M  CHG  1  32  -1
M  END
>  <washed_aromatic_smiles>  (1) 
c1ccc(cc1)NS(=O)(=O)c2ccc3c(c2)CCN3c4cccc(n4)CCCC5CCCC5

>  <name>  (1) 
ch322

$$$$
ch323
     RDKit          3D

 33 37  0  0  0  0  0  0  0  0999 V2000
    5.8150   12.8960   58.7690 C   0  0  0  0  0  0  0  0  0  0  0  0
    5.6990   13.4410   57.4960 C   0  0  0  0  0  0  0  0  0  0  0  0
    5.5700   11.5410   58.9430 C   0  0  0  0  0  0  0  0  0  0  0  0
    1.0900    4.8500   48.9570 C   0  0  0  0  0  0  0  0  0  0  0  0
    1.7720    3.6630   48.8880 C   0  0  0  0  0  0  0  0  0  0  0  0
    0.9410    5.4860   50.1750 C   0  0  0  0  0  0  0  0  0  0  0  0
    3.7620    6.6750   53.3060 C   0  0  0  0  0  0  0  0  0  0  0  0
    5.4180   12.6460   56.3970 C   0  0  0  0  0  0  0  0  0  0  0  0
    5.2370   10.7350   57.8760 C   0  0  0  0  0  0  0  0  0  0  0  0
    4.4920    7.7940   53.7290 C   0  0  0  0  0  0  0  0  0  0  0  0
    2.7070    9.2500   53.0780 C   0  0  0  0  0  0  0  0  0  0  0  0
    2.3580    3.8700   51.2320 C   0  0  0  0  0  0  0  0  0  0  0  0
    1.9220    8.1360   52.8580 C   0  0  0  0  0  0  0  0  0  0  0  0
    2.3240    3.1320   50.0440 C   0  0  0  0  0  0  0  0  0  0  0  0
    1.6590    5.0790   51.2850 C   0  0  0  0  0  0  0  0  0  0  0  0
    2.4790    6.8740   52.8390 C   0  0  0  0  0  0  0  0  0  0  0  0
    5.2040   11.2490   56.5580 C   0  0  0  0  0  0  0  0  0  0  0  0
    4.0070    9.0890   53.5450 C   0  0  0  0  0  0  0  0  0  0  0  0
    0.4500    8.0370   52.7340 C   0  0  0  0  0  0  0  0  0  0  0  0
    2.0550   -0.3700   54.5740 C   0  0  0  0  0  0  0  0  0  0  0  0
    3.0480   -0.9480   53.6310 C   0  0  0  0  0  0  0  0  0  0  0  0
    1.0520    0.1260   53.5790 C   0  0  0  0  0  0  0  0  0  0  0  0
    2.6180   -0.8150   52.1830 C   0  0  0  0  0  0  0  0  0  0  0  0
    0.2890    6.5160   52.7590 C   0  0  0  0  0  0  0  0  0  0  0  0
    1.7680    0.4400   52.3130 C   0  0  0  0  0  0  0  0  0  0  0  0
    2.7470    1.7080   49.9180 C   0  0  0  0  0  0  0  0  0  0  0  0
    0.7770    0.7340   51.1850 C   0  0  0  0  0  0  0  0  0  0  0  0
    1.5240    0.7660   49.8630 C   0  0  0  0  0  0  0  0  0  0  0  0
    1.5620    5.8870   52.4460 N   0  0  0  0  0  0  0  0  0  0  0  0
    5.0090   10.3920   55.5700 N   0  0  0  0  0  0  0  0  0  0  0  0
    4.4640   11.6850   53.4900 O   0  0  0  0  0  0  0  0  0  0  0  0
    6.3890   10.1790   53.5080 O   0  0  0  0  0  0  0  0  0  0  0  0
    5.0590   10.4680   53.9690 S   0  0  2  0  0  0  0  0  0  0  0  0
  1  2  2  0
  1  3  1  0
  2  8  1  0
  3  9  2  0
  4  5  2  0
  4  6  1  0
  5 14  1  0
  6 15  2  0
  7 10  2  0
  7 16  1  0
  8 17  2  0
  9 17  1  0
 10 18  1  0
 11 13  1  0
 11 18  2  0
 12 14  2  0
 12 15  1  0
 13 16  2  0
 13 19  1  0
 14 26  1  0
 15 29  1  0
 16 29  1  0
 17 30  1  0
 18 33  1  0
 19 24  1  0
 20 21  1  0
 20 22  1  0
 21 23  1  0
 22 25  1  0
 23 25  1  0
 24 29  1  0
 25 27  1  0
 26 28  1  0
 27 28  1  0
 30 33  2  0
 31 33  2  0
 33 32  1  6
M  CHG  1  32  -1
M  END
>  <washed_aromatic_smiles>  (2) 
c1ccc(cc1)NS(=O)(=O)c2ccc3c(c2)CCN3c4cccc(c4)CCCC5CCCC5

>  <name>  (2) 
ch323

$$$$
ch324
     RDKit          3D

 29 31  0  0  0  0  0  0  0  0999 V2000
    0.4430    1.3050   45.8620 C   0  0  0  0  0  0  0  0  0  0  0  0
   -0.0610    1.7270   47.0760 C   0  0  0  0  0  0  0  0  0  0  0  0
    1.1750    0.1390   45.8160 C   0  0  0  0  0  0  0  0  0  0  0  0
    2.8480    3.3280   52.1350 C   0  0  0  0  0  0  0  0  0  0  0  0
    0.1550    1.0080   48.2310 C   0  0  0  0  0  0  0  0  0  0  0  0
    1.4080   -0.6050   46.9590 C   0  0  0  0  0  0  0  0  0  0  0  0
    2.5090    1.9950   51.9920 C   0  0  0  0  0  0  0  0  0  0  0  0
    2.4030    2.2790   49.6070 C   0  0  0  0  0  0  0  0  0  0  0  0
    2.7100    3.6260   49.7560 C   0  0  0  0  0  0  0  0  0  0  0  0
    2.8640    4.1430   51.0200 C   0  0  0  0  0  0  0  0  0  0  0  0
    0.9350   -0.1660   48.2240 C   0  0  0  0  0  0  0  0  0  0  0  0
    2.1830    1.4720   50.7420 C   0  0  0  0  0  0  0  0  0  0  0  0
    2.4030    6.3750   51.8170 C   0  0  0  0  0  0  0  0  0  0  0  0
    2.9510    4.7090   48.7480 C   0  0  0  0  0  0  0  0  0  0  0  0
    3.5070    5.8420   49.6380 C   0  0  0  0  0  0  0  0  0  0  0  0
    5.4130   12.5450   54.8610 C   0  0  0  0  0  0  0  0  0  0  0  0
    3.2300    6.8160   54.0190 C   0  0  0  0  0  0  0  0  0  0  0  0
    5.4060   12.1940   53.3680 C   0  0  0  0  0  0  0  0  0  0  0  0
    5.8010   10.7390   53.0320 C   0  0  0  0  0  0  0  0  0  0  0  0
    5.0120    9.6460   53.7720 C   0  0  0  0  0  0  0  0  0  0  0  0
    3.5070    9.6370   53.4450 C   0  0  0  0  0  0  0  0  0  0  0  0
    2.9810    8.6480   52.3920 C   0  0  0  0  0  0  0  0  0  0  0  0
    3.1490    5.5140   51.0230 N   0  0  0  0  0  0  0  0  0  0  0  0
    1.3280   -0.7660   49.3430 N   0  0  0  0  0  0  0  0  0  0  0  0
    3.1180    7.2210   52.6390 N   0  0  0  0  0  0  0  0  0  0  0  0
    1.1680    6.3390   51.8280 O   0  0  0  0  0  0  0  0  0  0  0  0
    0.0460    0.1120   51.2970 O   0  0  0  0  0  0  0  0  0  0  0  0
    2.2080   -0.9750   51.6570 O   0  0  0  0  0  0  0  0  0  0  0  0
    1.3800   -0.1400   50.8290 S   0  0  2  0  0  0  0  0  0  0  0  0
  1  2  2  0
  1  3  1  0
  2  5  1  0
  3  6  2  0
  4  7  2  0
  4 10  1  0
  5 11  2  0
  6 11  1  0
  7 12  1  0
  8  9  1  0
  8 12  2  0
  9 10  2  0
  9 14  1  0
 10 23  1  0
 11 24  1  0
 12 29  1  0
 13 23  1  0
 13 25  1  0
 13 26  2  0
 14 15  1  0
 15 23  1  0
 16 18  1  0
 17 25  1  0
 18 19  1  0
 19 20  1  0
 20 21  1  0
 21 22  1  0
 22 25  1  0
 24 29  2  0
 27 29  2  0
 29 28  1  1
M  CHG  1  28  -1
M  END
>  <washed_aromatic_smiles>  (3) 
CCCCCCN(C)C(=O)N1CCc2c1ccc(c2)S(=O)(=O)Nc3ccccc3

>  <name>  (3) 
ch324

$$$$
ch325
     RDKit          3D

 32 35  0  0  0  0  0  0  0  0999 V2000
    5.4440    9.5710   59.0110 C   0  0  0  0  0  0  0  0  0  0  0  0
    5.0960   10.9060   58.7970 C   0  0  0  0  0  0  0  0  0  0  0  0
    5.6270    8.7330   57.9180 C   0  0  0  0  0  0  0  0  0  0  0  0
    3.6860    6.6890   53.3320 C   0  0  0  0  0  0  0  0  0  0  0  0
    4.8860   11.3860   57.5230 C   0  0  0  0  0  0  0  0  0  0  0  0
    5.4500    9.2080   56.6360 C   0  0  0  0  0  0  0  0  0  0  0  0
    4.4250    7.8050   53.7190 C   0  0  0  0  0  0  0  0  0  0  0  0
    2.6280    9.2490   53.0910 C   0  0  0  0  0  0  0  0  0  0  0  0
    1.8420    8.1320   52.8470 C   0  0  0  0  0  0  0  0  0  0  0  0
    2.4130    6.8810   52.8290 C   0  0  0  0  0  0  0  0  0  0  0  0
    5.0430   10.5500   56.3950 C   0  0  0  0  0  0  0  0  0  0  0  0
    3.9430    9.1010   53.5390 C   0  0  0  0  0  0  0  0  0  0  0  0
    2.8310    2.8330   51.5710 C   0  0  0  0  0  0  0  0  0  0  0  0
    2.0150    4.7160   51.6040 C   0  0  0  0  0  0  0  0  0  0  0  0
    0.3890    8.0160   52.5350 C   0  0  0  0  0  0  0  0  0  0  0  0
    0.3000    6.5950   51.9330 C   0  0  0  0  0  0  0  0  0  0  0  0
   -0.0180    1.3320   46.8630 C   0  0  0  0  0  0  0  0  0  0  0  0
    3.5070    1.5250   51.9670 C   0  0  0  0  0  0  0  0  0  0  0  0
    0.8480    0.6530   47.9100 C   0  0  0  0  0  0  0  0  0  0  0  0
    2.7700    0.7760   53.1000 C   0  0  0  0  0  0  0  0  0  0  0  0
    0.1190    0.5100   49.2390 C   0  0  0  0  0  0  0  0  0  0  0  0
    1.6680   -0.2240   52.7160 C   0  0  0  0  0  0  0  0  0  0  0  0
    1.0560   -0.1000   50.2700 C   0  0  0  0  0  0  0  0  0  0  0  0
    0.6420    0.2910   51.6970 C   0  0  0  0  0  0  0  0  0  0  0  0
    2.8270    3.8850   52.2770 N   0  0  0  0  0  0  0  0  0  0  0  0
    1.5880    4.2330   50.4950 N   0  0  0  0  0  0  0  0  0  0  0  0
    1.5840    5.9390   52.1970 N   0  0  0  0  0  0  0  0  0  0  0  0
    4.8290   11.0740   55.1970 N   0  0  0  0  0  0  0  0  0  0  0  0
    4.7270   11.5010   52.7760 O   0  0  0  0  0  0  0  0  0  0  0  0
    6.4230    9.9760   53.6330 O   0  0  0  0  0  0  0  0  0  0  0  0
    2.1220    3.0070   50.4600 O   0  0  0  0  0  0  0  0  0  0  0  0
    5.0840   10.4890   53.7240 S   0  0  2  0  0  0  0  0  0  0  0  0
  1  2  2  0
  1  3  1  0
  2  5  1  0
  3  6  2  0
  4  7  2  0
  4 10  1  0
  5 11  2  0
  6 11  1  0
  7 12  1  0
  8  9  1  0
  8 12  2  0
  9 10  2  0
  9 15  1  0
 10 27  1  0
 11 28  1  0
 12 32  1  0
 13 18  1  0
 13 25  2  0
 13 31  1  0
 14 25  1  0
 14 26  2  0
 14 27  1  0
 15 16  1  0
 16 27  1  0
 17 19  1  0
 18 20  1  0
 19 21  1  0
 20 22  1  0
 21 23  1  0
 22 24  1  0
 23 24  1  0
 26 31  1  0
 28 32  2  0
 29 32  2  0
 32 30  1  1
M  CHG  1  30  -1
M  END
>  <washed_aromatic_smiles>  (4) 
CCCCCCCCc1nc(no1)N2CCc3c2ccc(c3)S(=O)(=O)Nc4ccccc4

>  <name>  (4) 
ch325

$$$$
ch327
     RDKit          3D

 27 29  0  0  0  0  0  0  0  0999 V2000
    3.6600    0.6650   55.9930 C   0  0  0  0  0  0  0  0  0  0  0  0
    2.6160    1.3860   55.4300 C   0  0  0  0  0  0  0  0  0  0  0  0
    3.9240   -0.6070   55.4970 C   0  0  0  0  0  0  0  0  0  0  0  0
    2.7720    3.2880   51.5380 C   0  0  0  0  0  0  0  0  0  0  0  0
    1.8790    0.8520   54.3830 C   0  0  0  0  0  0  0  0  0  0  0  0
    3.2390   -1.0920   54.3930 C   0  0  0  0  0  0  0  0  0  0  0  0
    2.8440    1.9380   51.7420 C   0  0  0  0  0  0  0  0  0  0  0  0
    1.8230    1.5040   49.5980 C   0  0  0  0  0  0  0  0  0  0  0  0
    1.9100    2.8510   49.3250 C   0  0  0  0  0  0  0  0  0  0  0  0
    2.3330    3.7350   50.3020 C   0  0  0  0  0  0  0  0  0  0  0  0
    2.2200   -0.3590   53.7720 C   0  0  0  0  0  0  0  0  0  0  0  0
    2.3060    1.0530   50.8200 C   0  0  0  0  0  0  0  0  0  0  0  0
    2.9580    6.1530   50.3670 C   0  0  0  0  0  0  0  0  0  0  0  0
    1.6970    3.5340   48.0230 C   0  0  0  0  0  0  0  0  0  0  0  0
    1.7880    4.9860   48.4580 C   0  0  0  0  0  0  0  0  0  0  0  0
   -0.0840    8.5720   55.9450 C   0  0  0  0  0  0  0  0  0  0  0  0
    2.9730    6.3120   51.8760 C   0  0  0  0  0  0  0  0  0  0  0  0
    0.1780    8.5980   54.4190 C   0  0  0  0  0  0  0  0  0  0  0  0
    2.8740    7.7090   52.5200 C   0  0  0  0  0  0  0  0  0  0  0  0
    0.8720    7.3890   53.8780 C   0  0  0  0  0  0  0  0  0  0  0  0
    2.3980    7.5730   53.9560 C   0  0  0  0  0  0  0  0  0  0  0  0
    2.3460    5.0380   49.8090 N   0  0  0  0  0  0  0  0  0  0  0  0
    1.6240   -0.7390   52.6480 N   0  0  0  0  0  0  0  0  0  0  0  0
    3.4900    6.9480   49.6210 O   0  0  0  0  0  0  0  0  0  0  0  0
    3.7600   -0.9250   51.3450 O   0  0  0  0  0  0  0  0  0  0  0  0
    1.6490   -1.3460   50.2070 O   0  0  0  0  0  0  0  0  0  0  0  0
    2.3740   -0.6400   51.2190 S   0  0  2  0  0  0  0  0  0  0  0  0
  1  2  2  0
  1  3  1  0
  2  5  1  0
  3  6  2  0
  4  7  2  0
  4 10  1  0
  5 11  2  0
  6 11  1  0
  7 12  1  0
  8  9  1  0
  8 12  2  0
  9 10  2  0
  9 14  1  0
 10 22  1  0
 11 23  1  0
 12 27  1  0
 13 17  1  0
 13 22  1  0
 13 24  2  0
 14 15  1  0
 15 22  1  0
 16 18  1  0
 17 19  1  0
 18 20  1  0
 19 21  1  0
 20 21  1  0
 23 27  2  0
 25 27  2  0
 27 26  1  6
M  CHG  1  26  -1
M  END
>  <washed_aromatic_smiles>  (5) 
CCCCCCC(=O)N1CCc2c1ccc(c2)S(=O)(=O)Nc3ccccc3

>  <name>  (5) 
ch327

$$$$
ch330
     RDKit          3D

 31 33  0  0  0  0  0  0  0  0999 V2000
    7.9550    6.2830   59.0600 C   0  0  0  0  0  0  0  0  0  0  0  0
    7.1600    6.2860   60.1980 C   0  0  0  0  0  0  0  0  0  0  0  0
    7.7880    7.3210   58.1460 C   0  0  0  0  0  0  0  0  0  0  0  0
    3.2420    9.5880   55.5940 C   0  0  0  0  0  0  0  0  0  0  0  0
    6.2600    7.3140   60.4000 C   0  0  0  0  0  0  0  0  0  0  0  0
    6.8480    8.2830   58.2760 C   0  0  0  0  0  0  0  0  0  0  0  0
    3.5930    9.7900   56.9050 C   0  0  0  0  0  0  0  0  0  0  0  0
    5.5150   11.0990   56.2280 C   0  0  0  0  0  0  0  0  0  0  0  0
    5.2430   10.7810   54.9190 C   0  0  0  0  0  0  0  0  0  0  0  0
    4.1330   10.0190   54.6190 C   0  0  0  0  0  0  0  0  0  0  0  0
    6.0890    8.3450   59.4300 C   0  0  0  0  0  0  0  0  0  0  0  0
    4.7390   10.5200   57.2180 C   0  0  0  0  0  0  0  0  0  0  0  0
    3.3990    8.7780   52.5850 C   0  0  0  0  0  0  0  0  0  0  0  0
    6.0120   11.1260   53.6910 C   0  0  0  0  0  0  0  0  0  0  0  0
    5.0370   10.6950   52.6170 C   0  0  0  0  0  0  0  0  0  0  0  0
    0.2250    0.1880   48.9080 C   0  0  0  0  0  0  0  0  0  0  0  0
    3.4520    7.0380   54.2630 C   0  0  0  0  0  0  0  0  0  0  0  0
    0.7130    1.1980   47.8610 C   0  0  0  0  0  0  0  0  0  0  0  0
    1.8110    2.1510   48.3760 C   0  0  0  0  0  0  0  0  0  0  0  0
    1.3430    3.1180   49.4030 C   0  0  0  0  0  0  0  0  0  0  0  0
    2.3870    4.0700   49.9360 C   0  0  0  0  0  0  0  0  0  0  0  0
    1.5860    5.0540   50.7880 C   0  0  0  0  0  0  0  0  0  0  0  0
    2.5450    5.9300   51.5480 C   0  0  0  0  0  0  0  0  0  0  0  0
    1.8170    6.9280   52.4660 C   0  0  0  0  0  0  0  0  0  0  0  0
    4.0590    9.7980   53.2550 N   0  0  0  0  0  0  0  0  0  0  0  0
    5.3200    9.3790   59.5960 N   0  0  0  0  0  0  0  0  0  0  0  0
    2.7320    7.7640   53.2390 N   0  0  0  0  0  0  0  0  0  0  0  0
    3.4780    8.7500   51.3800 O   0  0  0  0  0  0  0  0  0  0  0  0
    3.7550   11.2150   59.3380 O   0  0  0  0  0  0  0  0  0  0  0  0
    6.0720   11.7430   59.1220 O   0  0  0  0  0  0  0  0  0  0  0  0
    5.0110   10.8050   58.9100 S   0  0  2  0  0  0  0  0  0  0  0  0
  1  2  2  0
  1  3  1  0
  2  5  1  0
  3  6  2  0
  4  7  2  0
  4 10  1  0
  5 11  2  0
  6 11  1  0
  7 12  1  0
  8  9  1  0
  8 12  2  0
  9 10  2  0
  9 14  1  0
 10 25  1  0
 11 26  1  0
 12 31  1  0
 13 25  1  0
 13 27  1  0
 13 28  2  0
 14 15  1  0
 15 25  1  0
 16 18  1  0
 17 27  1  0
 18 19  1  0
 19 20  1  0
 20 21  1  0
 21 22  1  0
 22 23  1  0
 23 24  1  0
 24 27  1  0
 26 31  2  0
 29 31  2  0
 31 30  1  6
M  CHG  1  30  -1
M  END
>  <washed_aromatic_smiles>  (6) 
CCCCCCCCN(C)C(=O)N1CCc2c1ccc(c2)S(=O)(=O)Nc3ccccc3

>  <name>  (6) 
ch330

$$$$
ch332
     RDKit          3D

 31 34  0  0  0  0  0  0  0  0999 V2000
    0.2120    1.8330   46.6310 C   0  0  0  0  0  0  0  0  0  0  0  0
   -0.4610    0.8210   47.2990 C   0  0  0  0  0  0  0  0  0  0  0  0
    1.2560    2.4810   47.2820 C   0  0  0  0  0  0  0  0  0  0  0  0
    4.3030    8.1400   55.4040 C   0  0  0  0  0  0  0  0  0  0  0  0
    3.3080    5.0430   52.6650 C   0  0  0  0  0  0  0  0  0  0  0  0
   -0.1130    0.4440   48.5720 C   0  0  0  0  0  0  0  0  0  0  0  0
    1.6400    2.1030   48.5420 C   0  0  0  0  0  0  0  0  0  0  0  0
    3.0690    3.6910   52.4090 C   0  0  0  0  0  0  0  0  0  0  0  0
    5.0190    9.1930   54.8570 C   0  0  0  0  0  0  0  0  0  0  0  0
    3.3340    7.5480   54.6240 C   0  0  0  0  0  0  0  0  0  0  0  0
    1.4370    4.1960   50.8210 C   0  0  0  0  0  0  0  0  0  0  0  0
    1.3700    5.4660   51.3980 C   0  0  0  0  0  0  0  0  0  0  0  0
    2.3880    5.9410   52.1830 C   0  0  0  0  0  0  0  0  0  0  0  0
    0.9010    1.1310   49.2630 C   0  0  0  0  0  0  0  0  0  0  0  0
    2.2410    3.2240   51.4250 C   0  0  0  0  0  0  0  0  0  0  0  0
    4.7050    9.6640   53.5830 C   0  0  0  0  0  0  0  0  0  0  0  0
    3.1000    8.0240   53.3380 C   0  0  0  0  0  0  0  0  0  0  0  0
    0.2320    6.4080   51.5220 C   0  0  0  0  0  0  0  0  0  0  0  0
    0.8060    7.5790   52.3530 C   0  0  0  0  0  0  0  0  0  0  0  0
    4.7750   11.2340   58.1440 C   0  0  0  0  0  0  0  0  0  0  0  0
    5.5140   10.7980   52.9770 C   0  0  0  0  0  0  0  0  0  0  0  0
    5.2290   12.3750   57.2260 C   0  0  0  0  0  0  0  0  0  0  0  0
    5.0760   12.2340   53.3270 C   0  0  0  0  0  0  0  0  0  0  0  0
    4.5350   12.3300   55.8590 C   0  0  0  0  0  0  0  0  0  0  0  0
    5.4820   12.7310   54.7220 C   0  0  0  0  0  0  0  0  0  0  0  0
    3.7350    9.1000   52.8490 N   0  0  0  0  0  0  0  0  0  0  0  0
    2.2300    7.3050   52.5050 N   0  0  0  0  0  0  0  0  0  0  0  0
    1.0710    0.8700   50.5380 N   0  0  0  0  0  0  0  0  0  0  0  0
    2.1540    0.9380   52.7380 O   0  0  0  0  0  0  0  0  0  0  0  0
    3.5320    1.0140   50.7340 O   0  0  0  0  0  0  0  0  0  0  0  0
    2.3120    1.3960   51.3850 S   0  0  2  0  0  0  0  0  0  0  0  0
  1  2  2  0
  1  3  1  0
  2  6  1  0
  3  7  2  0
  4  9  2  0
  4 10  1  0
  5  8  2  0
  5 13  1  0
  6 14  2  0
  7 14  1  0
  8 15  1  0
  9 16  1  0
 10 17  2  0
 11 12  1  0
 11 15  2  0
 12 13  2  0
 12 18  1  0
 13 27  1  0
 14 28  1  0
 15 31  1  0
 16 21  1  0
 16 26  2  0
 17 26  1  0
 17 27  1  0
 18 19  1  0
 19 27  1  0
 20 22  1  0
 21 23  1  0
 22 24  1  0
 23 25  1  0
 24 25  1  0
 28 31  2  0
 29 31  2  0
 31 30  1  6
M  CHG  1  30  -1
M  END
>  <washed_aromatic_smiles>  (7) 
CCCCCCc1cccc(n1)N2CCc3c2ccc(c3)S(=O)(=O)Nc4ccccc4

>  <name>  (7) 
ch332

$$$$
ch334
     RDKit          3D

 31 34  0  0  0  0  0  0  0  0999 V2000
    6.2120   13.4530   59.2440 C   0  0  0  0  0  0  0  0  0  0  0  0
    6.3850   13.7950   57.9240 C   0  0  0  0  0  0  0  0  0  0  0  0
    5.5210   12.2970   59.5280 C   0  0  0  0  0  0  0  0  0  0  0  0
    3.2950    5.2960   48.8050 C   0  0  0  0  0  0  0  0  0  0  0  0
    2.6770    4.0680   48.7250 C   0  0  0  0  0  0  0  0  0  0  0  0
    3.0680    6.1470   49.8670 C   0  0  0  0  0  0  0  0  0  0  0  0
    3.4380    8.7050   51.8550 C   0  0  0  0  0  0  0  0  0  0  0  0
    5.9160   12.9880   56.8950 C   0  0  0  0  0  0  0  0  0  0  0  0
    5.0480   11.4520   58.5420 C   0  0  0  0  0  0  0  0  0  0  0  0
    4.1630    9.6010   52.6100 C   0  0  0  0  0  0  0  0  0  0  0  0
    2.7320    9.1910   54.4790 C   0  0  0  0  0  0  0  0  0  0  0  0
    1.4520    4.6000   50.7320 C   0  0  0  0  0  0  0  0  0  0  0  0
    2.0030    8.2900   53.6850 C   0  0  0  0  0  0  0  0  0  0  0  0
    1.7780    3.6880   49.7080 C   0  0  0  0  0  0  0  0  0  0  0  0
    2.0970    5.8500   50.8270 C   0  0  0  0  0  0  0  0  0  0  0  0
    2.4470    7.9380   52.4270 C   0  0  0  0  0  0  0  0  0  0  0  0
    5.2350   11.7630   57.1730 C   0  0  0  0  0  0  0  0  0  0  0  0
    3.8470    9.8580   53.9290 C   0  0  0  0  0  0  0  0  0  0  0  0
    0.6660    7.6600   53.8780 C   0  0  0  0  0  0  0  0  0  0  0  0
    0.4710    6.7950   52.6160 C   0  0  0  0  0  0  0  0  0  0  0  0
    4.0760    0.4760   51.4610 C   0  0  0  0  0  0  0  0  0  0  0  0
    1.2390    2.2690   49.5790 C   0  0  0  0  0  0  0  0  0  0  0  0
    3.1040    0.2460   52.6340 C   0  0  0  0  0  0  0  0  0  0  0  0
    0.9760    1.5990   50.9300 C   0  0  0  0  0  0  0  0  0  0  0  0
    1.8040   -0.4490   52.2030 C   0  0  0  0  0  0  0  0  0  0  0  0
    1.1730    0.0810   50.9020 C   0  0  0  0  0  0  0  0  0  0  0  0
    1.7220    6.8340   51.8580 N   0  0  0  0  0  0  0  0  0  0  0  0
    4.7690   10.9170   56.2490 N   0  0  0  0  0  0  0  0  0  0  0  0
    4.4440   12.4010   54.2590 O   0  0  0  0  0  0  0  0  0  0  0  0
    6.2480   10.7800   54.2390 O   0  0  0  0  0  0  0  0  0  0  0  0
    4.9190   11.1030   54.6570 S   0  0  2  0  0  0  0  0  0  0  0  0
  1  2  2  0
  1  3  1  0
  2  8  1  0
  3  9  2  0
  4  5  2  0
  4  6  1  0
  5 14  1  0
  6 15  2  0
  7 10  2  0
  7 16  1  0
  8 17  2  0
  9 17  1  0
 10 18  1  0
 11 13  1  0
 11 18  2  0
 12 14  2  0
 12 15  1  0
 13 16  2  0
 13 19  1  0
 14 22  1  0
 15 27  1  0
 16 27  1  0
 17 28  1  0
 18 31  1  0
 19 20  1  0
 20 27  1  0
 21 23  1  0
 22 24  1  0
 23 25  1  0
 24 26  1  0
 25 26  1  0
 28 31  2  0
 29 31  2  0
 31 30  1  6
M  CHG  1  30  -1
M  END
>  <washed_aromatic_smiles>  (8) 
CCCCCCc1cccc(c1)N2CCc3c2ccc(c3)S(=O)(=O)Nc4ccccc4

>  <name>  (8) 
ch334

$$$$
ch336
     RDKit          3D

 32 36  0  0  0  0  0  0  0  0999 V2000
    0.5130    1.4110   46.8390 C   0  0  0  0  0  0  0  0  0  0  0  0
    0.9590    0.1170   46.6390 C   0  0  0  0  0  0  0  0  0  0  0  0
    0.2650    1.8280   48.1380 C   0  0  0  0  0  0  0  0  0  0  0  0
    2.9480    3.3240   52.4940 C   0  0  0  0  0  0  0  0  0  0  0  0
    1.1690   -0.7260   47.7140 C   0  0  0  0  0  0  0  0  0  0  0  0
    0.4020    0.9780   49.2190 C   0  0  0  0  0  0  0  0  0  0  0  0
    2.8560    1.9480   52.4190 C   0  0  0  0  0  0  0  0  0  0  0  0
    2.7490    2.1260   50.0380 C   0  0  0  0  0  0  0  0  0  0  0  0
    3.8950    8.0000   53.9940 C   0  0  0  0  0  0  0  0  0  0  0  0
    2.7340    3.5060   50.1440 C   0  0  0  0  0  0  0  0  0  0  0  0
    2.7820    4.1150   51.3810 C   0  0  0  0  0  0  0  0  0  0  0  0
    1.0190   -0.2780   49.0510 C   0  0  0  0  0  0  0  0  0  0  0  0
    2.7140    1.3290   51.1860 C   0  0  0  0  0  0  0  0  0  0  0  0
    3.7840    8.6140   52.8040 C   0  0  0  0  0  0  0  0  0  0  0  0
    2.9770    6.6610   52.1890 C   0  0  0  0  0  0  0  0  0  0  0  0
    2.7560    4.5280   49.0760 C   0  0  0  0  0  0  0  0  0  0  0  0
    5.0160   13.4410   56.7640 C   0  0  0  0  0  0  0  0  0  0  0  0
    6.2010   12.6140   56.4490 C   0  0  0  0  0  0  0  0  0  0  0  0
    4.0860   13.1930   55.5870 C   0  0  0  0  0  0  0  0  0  0  0  0
    5.8590   11.8400   55.2190 C   0  0  0  0  0  0  0  0  0  0  0  0
    2.4770    5.7690   49.9130 C   0  0  0  0  0  0  0  0  0  0  0  0
    5.0660   12.8750   54.4620 C   0  0  0  0  0  0  0  0  0  0  0  0
    4.6800    9.8010   52.5900 C   0  0  0  0  0  0  0  0  0  0  0  0
    4.6970   12.3120   53.0970 C   0  0  0  0  0  0  0  0  0  0  0  0
    4.0030   10.9610   53.1870 C   0  0  0  0  0  0  0  0  0  0  0  0
    3.1180    7.9090   51.8070 N   0  0  0  0  0  0  0  0  0  0  0  0
    2.7270    5.5320   51.3040 N   0  0  0  0  0  0  0  0  0  0  0  0
    1.6050   -0.9500   50.0400 N   0  0  0  0  0  0  0  0  0  0  0  0
    2.2420   -0.9020   52.4590 O   0  0  0  0  0  0  0  0  0  0  0  0
    3.9960   -0.8140   50.7700 O   0  0  0  0  0  0  0  0  0  0  0  0
    3.3400    6.4270   53.8380 S   0  0  0  0  0  0  0  0  0  0  0  0
    2.6720   -0.4490   51.1650 S   0  0  2  0  0  0  0  0  0  0  0  0
  1  2  2  0
  1  3  1  0
  2  5  1  0
  3  6  2  0
  4  7  2  0
  4 11  1  0
  5 12  2  0
  6 12  1  0
  7 13  1  0
  8 10  1  0
  8 13  2  0
  9 14  2  0
  9 31  1  0
 10 11  2  0
 10 16  1  0
 11 27  1  0
 12 28  1  0
 13 32  1  0
 14 23  1  0
 14 26  1  0
 15 26  2  0
 15 27  1  0
 15 31  1  0
 16 21  1  0
 17 18  1  0
 17 19  1  0
 18 20  1  0
 19 22  1  0
 20 22  1  0
 21 27  1  0
 22 24  1  0
 23 25  1  0
 24 25  1  0
 28 32  2  0
 29 32  2  0
 32 30  1  6
M  CHG  1  30  -1
M  END
>  <washed_aromatic_smiles>  (9) 
c1ccc(cc1)NS(=O)(=O)c2ccc3c(c2)CCN3c4nc(cs4)CCCC5CCCC5

>  <name>  (9) 
ch336

$$$$
ch339
     RDKit          3D

 32 35  0  0  0  0  0  0  0  0999 V2000
    1.3000    0.2600   45.3750 C   0  0  0  0  0  0  0  0  0  0  0  0
    0.6200    1.4390   45.5420 C   0  0  0  0  0  0  0  0  0  0  0  0
    1.4930   -0.5640   46.4740 C   0  0  0  0  0  0  0  0  0  0  0  0
    2.9940    2.3300   52.9620 C   0  0  0  0  0  0  0  0  0  0  0  0
    0.2850    1.9020   46.7860 C   0  0  0  0  0  0  0  0  0  0  0  0
    1.1120   -0.1540   47.7240 C   0  0  0  0  0  0  0  0  0  0  0  0
    2.4910    2.3830   51.6650 C   0  0  0  0  0  0  0  0  0  0  0  0
    2.6840    0.0110   51.4520 C   0  0  0  0  0  0  0  0  0  0  0  0
    5.6770    0.8990   58.0780 C   0  0  0  0  0  0  0  0  0  0  0  0
    3.0260   -0.0240   52.7740 C   0  0  0  0  0  0  0  0  0  0  0  0
    3.1920    1.0870   53.5800 C   0  0  0  0  0  0  0  0  0  0  0  0
    0.5910    1.1510   47.9340 C   0  0  0  0  0  0  0  0  0  0  0  0
    2.1470    1.1980   51.0280 C   0  0  0  0  0  0  0  0  0  0  0  0
    5.0800    2.1030   57.9120 C   0  0  0  0  0  0  0  0  0  0  0  0
    4.1830    1.0290   56.1710 C   0  0  0  0  0  0  0  0  0  0  0  0
    2.7030   -1.1990   53.5480 C   0  0  0  0  0  0  0  0  0  0  0  0
    3.1230   -0.7850   54.9280 C   0  0  0  0  0  0  0  0  0  0  0  0
    3.6490    8.8350   55.6080 C   0  0  0  0  0  0  0  0  0  0  0  0
    5.4020    3.1960   58.9290 C   0  0  0  0  0  0  0  0  0  0  0  0
    4.8810    9.4740   56.2620 C   0  0  0  0  0  0  0  0  0  0  0  0
    5.5060    4.6230   58.3860 C   0  0  0  0  0  0  0  0  0  0  0  0
    5.0840    9.0250   57.7190 C   0  0  0  0  0  0  0  0  0  0  0  0
    6.0550    5.6090   59.4370 C   0  0  0  0  0  0  0  0  0  0  0  0
    5.7000    7.6220   57.8310 C   0  0  0  0  0  0  0  0  0  0  0  0
    5.5850    7.0640   59.2580 C   0  0  0  0  0  0  0  0  0  0  0  0
    4.2020    2.1720   56.8290 N   0  0  0  0  0  0  0  0  0  0  0  0
    3.3660    0.6600   54.9860 N   0  0  0  0  0  0  0  0  0  0  0  0
    0.3790    1.7110   49.1070 N   0  0  0  0  0  0  0  0  0  0  0  0
   -0.3250    1.6620   51.5120 O   0  0  0  0  0  0  0  0  0  0  0  0
    0.2120   -0.3890   50.3930 O   0  0  0  0  0  0  0  0  0  0  0  0
    5.2060   -0.1980   56.8730 S   0  0  0  0  0  0  0  0  0  0  0  0
    0.4710    0.9970   50.5270 S   0  0  2  0  0  0  0  0  0  0  0  0
  1  2  2  0
  1  3  1  0
  2  5  1  0
  3  6  2  0
  4  7  2  0
  4 11  1  0
  5 12  2  0
  6 12  1  0
  7 13  1  0
  8 10  1  0
  8 13  2  0
  9 14  2  0
  9 31  1  0
 10 11  2  0
 10 16  1  0
 11 27  1  0
 12 28  1  0
 13 32  1  0
 14 19  1  0
 14 26  1  0
 15 26  2  0
 15 27  1  0
 15 31  1  0
 16 17  1  0
 17 27  1  0
 18 20  1  0
 19 21  1  0
 20 22  1  0
 21 23  1  0
 22 24  1  0
 23 25  1  0
 24 25  1  0
 28 32  2  0
 29 32  2  0
 32 30  1  6
M  CHG  1  30  -1
M  END
>  <washed_aromatic_smiles>  (10) 
CCCCCCCCc1csc(n1)N2CCc3c2ccc(c3)S(=O)(=O)Nc4ccccc4

>  <name>  (10) 
ch339

$$$$
ch341
     RDKit          3D

 33 36  0  0  0  0  0  0  0  0999 V2000
    5.2530    7.3590   58.7410 C   0  0  0  0  0  0  0  0  0  0  0  0
    5.3150    8.6690   59.2010 C   0  0  0  0  0  0  0  0  0  0  0  0
    5.0720    7.1330   57.3820 C   0  0  0  0  0  0  0  0  0  0  0  0
    1.3300    4.3740   49.2670 C   0  0  0  0  0  0  0  0  0  0  0  0
    3.2490    8.3490   51.8570 C   0  0  0  0  0  0  0  0  0  0  0  0
    5.1760    9.7360   58.3340 C   0  0  0  0  0  0  0  0  0  0  0  0
    4.9900    8.1860   56.4850 C   0  0  0  0  0  0  0  0  0  0  0  0
    4.0230    9.3010   52.5100 C   0  0  0  0  0  0  0  0  0  0  0  0
    2.1460    3.3910   49.7810 C   0  0  0  0  0  0  0  0  0  0  0  0
    0.9590    5.3940   50.1130 C   0  0  0  0  0  0  0  0  0  0  0  0
    2.6220    9.1720   54.4460 C   0  0  0  0  0  0  0  0  0  0  0  0
    1.8060    8.2940   53.7380 C   0  0  0  0  0  0  0  0  0  0  0  0
    2.1990    7.7780   52.5240 C   0  0  0  0  0  0  0  0  0  0  0  0
    5.0180    9.5350   56.9370 C   0  0  0  0  0  0  0  0  0  0  0  0
    3.7710    9.6780   53.8240 C   0  0  0  0  0  0  0  0  0  0  0  0
    2.5360    3.4710   51.1160 C   0  0  0  0  0  0  0  0  0  0  0  0
    1.6170    5.5750   51.3240 C   0  0  0  0  0  0  0  0  0  0  0  0
    0.4200    7.8450   53.9830 C   0  0  0  0  0  0  0  0  0  0  0  0
    0.1560    6.8630   52.8130 C   0  0  0  0  0  0  0  0  0  0  0  0
    4.6250    1.4430   57.0980 C   0  0  0  0  0  0  0  0  0  0  0  0
    3.0450    2.2200   51.7960 C   0  0  0  0  0  0  0  0  0  0  0  0
    3.3650    1.4960   56.2240 C   0  0  0  0  0  0  0  0  0  0  0  0
    2.1920    0.9740   51.4970 C   0  0  0  0  0  0  0  0  0  0  0  0
    3.4380    0.4760   55.0760 C   0  0  0  0  0  0  0  0  0  0  0  0
    2.9240   -0.2930   51.9380 C   0  0  0  0  0  0  0  0  0  0  0  0
    2.1630   -0.0850   54.4660 C   0  0  0  0  0  0  0  0  0  0  0  0
    2.3750   -0.9320   53.2100 C   0  0  0  0  0  0  0  0  0  0  0  0
    2.3720    4.5940   51.8420 N   0  0  0  0  0  0  0  0  0  0  0  0
    1.3520    6.7660   52.0410 N   0  0  0  0  0  0  0  0  0  0  0  0
    4.9200   10.6010   56.1420 N   0  0  0  0  0  0  0  0  0  0  0  0
    4.6350   12.1260   54.1950 O   0  0  0  0  0  0  0  0  0  0  0  0
    6.2700   10.3290   54.0580 O   0  0  0  0  0  0  0  0  0  0  0  0
    4.9950   10.7780   54.5380 S   0  0  2  0  0  0  0  0  0  0  0  0
  1  2  2  0
  1  3  1  0
  2  6  1  0
  3  7  2  0
  4  9  2  0
  4 10  1  0
  5  8  2  0
  5 13  1  0
  6 14  2  0
  7 14  1  0
  8 15  1  0
  9 16  1  0
 10 17  2  0
 11 12  1  0
 11 15  2  0
 12 13  2  0
 12 18  1  0
 13 29  1  0
 14 30  1  0
 15 33  1  0
 16 21  1  0
 16 28  2  0
 17 28  1  0
 17 29  1  0
 18 19  1  0
 19 29  1  0
 20 22  1  0
 21 23  1  0
 22 24  1  0
 23 25  1  0
 24 26  1  0
 25 27  1  0
 26 27  1  0
 30 33  2  0
 31 33  2  0
 33 32  1  6
M  CHG  1  32  -1
M  END
>  <washed_aromatic_smiles>  (11) 
CCCCCCCCc1cccc(n1)N2CCc3c2ccc(c3)S(=O)(=O)Nc4ccccc4

>  <name>  (11) 
ch341

$$$$
ch342
     RDKit          3D

 32 36  0  0  0  0  0  0  0  0999 V2000
    4.5660    0.2720   56.9110 C   0  0  0  0  0  0  0  0  0  0  0  0
    3.7760    1.3760   56.6160 C   0  0  0  0  0  0  0  0  0  0  0  0
    4.4540   -0.8540   56.1050 C   0  0  0  0  0  0  0  0  0  0  0  0
    3.0130    4.4070   52.3490 C   0  0  0  0  0  0  0  0  0  0  0  0
    2.9240    1.3720   55.5250 C   0  0  0  0  0  0  0  0  0  0  0  0
    3.6210   -0.8520   54.9920 C   0  0  0  0  0  0  0  0  0  0  0  0
    2.8850    3.0410   52.4570 C   0  0  0  0  0  0  0  0  0  0  0  0
    2.3170    2.8320   50.1390 C   0  0  0  0  0  0  0  0  0  0  0  0
    2.5630    4.2040   50.0080 C   0  0  0  0  0  0  0  0  0  0  0  0
    2.7590    4.9790   51.1370 C   0  0  0  0  0  0  0  0  0  0  0  0
    2.9130    0.2930   54.6020 C   0  0  0  0  0  0  0  0  0  0  0  0
    2.4200    2.2440   51.4110 C   0  0  0  0  0  0  0  0  0  0  0  0
    2.0760    8.2360   53.7350 C   0  0  0  0  0  0  0  0  0  0  0  0
    2.6590    7.3390   51.9580 C   0  0  0  0  0  0  0  0  0  0  0  0
    2.7910    5.0890   48.8260 C   0  0  0  0  0  0  0  0  0  0  0  0
   -2.4130    6.2950   58.9150 C   0  0  0  0  0  0  0  0  0  0  0  0
   -2.6150    7.4240   59.8820 C   0  0  0  0  0  0  0  0  0  0  0  0
   -2.1490    7.0080   57.6040 C   0  0  0  0  0  0  0  0  0  0  0  0
   -1.5410    8.3380   59.3260 C   0  0  0  0  0  0  0  0  0  0  0  0
    3.4030    6.3360   49.5320 C   0  0  0  0  0  0  0  0  0  0  0  0
   -1.5430    8.3690   57.8160 C   0  0  0  0  0  0  0  0  0  0  0  0
    1.6560    8.6720   55.1440 C   0  0  0  0  0  0  0  0  0  0  0  0
   -0.1860    8.7620   57.1320 C   0  0  0  0  0  0  0  0  0  0  0  0
    0.1520    8.5010   55.5930 C   0  0  0  0  0  0  0  0  0  0  0  0
    1.9260    7.1350   53.0990 N   0  0  0  0  0  0  0  0  0  0  0  0
    3.1910    8.5030   51.9210 N   0  0  0  0  0  0  0  0  0  0  0  0
    2.8660    6.3370   50.9080 N   0  0  0  0  0  0  0  0  0  0  0  0
    2.4480    0.3860   53.3550 N   0  0  0  0  0  0  0  0  0  0  0  0
    2.6920   -0.3350   50.9710 O   0  0  0  0  0  0  0  0  0  0  0  0
    0.5200    0.4690   51.7630 O   0  0  0  0  0  0  0  0  0  0  0  0
    2.8190    9.0860   53.0510 O   0  0  0  0  0  0  0  0  0  0  0  0
    1.9520    0.5510   51.8250 S   0  0  2  0  0  0  0  0  0  0  0  0
  1  2  2  0
  1  3  1  0
  2  5  1  0
  3  6  2  0
  4  7  2  0
  4 10  1  0
  5 11  2  0
  6 11  1  0
  7 12  1  0
  8  9  1  0
  8 12  2  0
  9 10  2  0
  9 15  1  0
 10 27  1  0
 11 28  1  0
 12 32  1  0
 13 22  1  0
 13 25  2  0
 13 31  1  0
 14 25  1  0
 14 26  2  0
 14 27  1  0
 15 20  1  0
 16 17  1  0
 16 18  1  0
 17 19  1  0
 18 21  1  0
 19 21  1  0
 20 27  1  0
 21 23  1  0
 22 24  1  0
 23 24  1  0
 26 31  1  0
 28 32  2  0
 29 32  2  0
 32 30  1  1
M  CHG  1  30  -1
M  END
>  <washed_aromatic_smiles>  (12) 
c1ccc(cc1)NS(=O)(=O)c2ccc3c(c2)CCN3c4nc(on4)CCCC5CCCC5

>  <name>  (12) 
ch342

$$$$
ch343
     RDKit          3D

 31 34  0  0  0  0  0  0  0  0999 V2000
    3.7970    0.7320   56.1860 C   0  0  0  0  0  0  0  0  0  0  0  0
    5.0180   10.4620   57.6090 C   0  0  0  0  0  0  0  0  0  0  0  0
    3.9930   -0.5830   55.7440 C   0  0  0  0  0  0  0  0  0  0  0  0
    2.9710    1.5790   55.4380 C   0  0  0  0  0  0  0  0  0  0  0  0
    4.7910    9.0960   57.7680 C   0  0  0  0  0  0  0  0  0  0  0  0
    4.8190   11.0410   56.3570 C   0  0  0  0  0  0  0  0  0  0  0  0
    3.3730   -1.0150   54.5540 C   0  0  0  0  0  0  0  0  0  0  0  0
    2.4140    1.1220   54.2300 C   0  0  0  0  0  0  0  0  0  0  0  0
    2.9660    4.4740   52.3480 C   0  0  0  0  0  0  0  0  0  0  0  0
    4.3430    8.3260   56.7090 C   0  0  0  0  0  0  0  0  0  0  0  0
    4.3760   10.2830   55.2860 C   0  0  0  0  0  0  0  0  0  0  0  0
    3.2010    5.7400   52.8580 C   0  0  0  0  0  0  0  0  0  0  0  0
    2.9420    6.6910   50.6970 C   0  0  0  0  0  0  0  0  0  0  0  0
    2.7510    5.4110   50.1570 C   0  0  0  0  0  0  0  0  0  0  0  0
    2.5870   -0.1770   53.7850 C   0  0  0  0  0  0  0  0  0  0  0  0
    2.7070    4.3250   51.0020 C   0  0  0  0  0  0  0  0  0  0  0  0
    4.0790    8.8990   55.4360 C   0  0  0  0  0  0  0  0  0  0  0  0
    3.0510    6.8810   52.0880 C   0  0  0  0  0  0  0  0  0  0  0  0
    2.8070    1.8570   50.8610 C   0  0  0  0  0  0  0  0  0  0  0  0
    2.6130    4.9220   48.7390 C   0  0  0  0  0  0  0  0  0  0  0  0
    2.3720    3.4100   48.9020 C   0  0  0  0  0  0  0  0  0  0  0  0
    0.6870    0.8240   50.0230 C   0  0  0  0  0  0  0  0  0  0  0  0
    1.8450   -0.7320   52.5820 C   0  0  0  0  0  0  0  0  0  0  0  0
    2.4310   -0.5300   51.1740 C   0  0  0  0  0  0  0  0  0  0  0  0
    2.4560    3.1080   50.3360 N   0  0  0  0  0  0  0  0  0  0  0  0
    3.5650    8.1350   54.4700 N   0  0  0  0  0  0  0  0  0  0  0  0
    2.0590    0.7410   50.5370 N   0  0  0  0  0  0  0  0  0  0  0  0
    3.7760    1.7420   51.6130 O   0  0  0  0  0  0  0  0  0  0  0  0
    1.7050    8.9480   53.0210 O   0  0  0  0  0  0  0  0  0  0  0  0
    4.0150    9.3470   52.3420 O   0  0  0  0  0  0  0  0  0  0  0  0
    3.0630    8.4820   52.9680 S   0  0  2  0  0  0  0  0  0  0  0  0
  1  3  2  0
  1  4  1  0
  2  5  2  0
  2  6  1  0
  3  7  1  0
  4  8  2  0
  5 10  1  0
  6 11  2  0
  7 15  2  0
  8 15  1  0
  9 12  2  0
  9 16  1  0
 10 17  2  0
 11 17  1  0
 12 18  1  0
 13 14  1  0
 13 18  2  0
 14 16  2  0
 14 20  1  0
 15 23  1  0
 16 25  1  0
 17 26  1  0
 18 31  1  0
 19 25  1  0
 19 27  1  0
 19 28  2  0
 20 21  1  0
 21 25  1  0
 22 27  1  0
 23 24  1  0
 24 27  1  0
 26 31  2  0
 29 31  2  0
 31 30  1  6
M  CHG  1  30  -1
M  END
>  <washed_aromatic_smiles>  (13) 
CN(CCc1ccccc1)C(=O)N2CCc3c2ccc(c3)S(=O)(=O)Nc4ccccc4

>  <name>  (13) 
ch343

$$$$
ch344
     RDKit          3D

 28 30  0  0  0  0  0  0  0  0999 V2000
    5.9400   12.8840   57.9310 C   0  0  0  0  0  0  0  0  0  0  0  0
    5.9710   12.8480   56.5390 C   0  0  0  0  0  0  0  0  0  0  0  0
    5.2080   11.9140   58.6090 C   0  0  0  0  0  0  0  0  0  0  0  0
    3.6350    6.5400   53.0250 C   0  0  0  0  0  0  0  0  0  0  0  0
    5.2470   11.9270   55.8270 C   0  0  0  0  0  0  0  0  0  0  0  0
    4.4850   10.9630   57.9140 C   0  0  0  0  0  0  0  0  0  0  0  0
    3.7810    7.3780   54.1200 C   0  0  0  0  0  0  0  0  0  0  0  0
    1.4080    7.7650   54.1930 C   0  0  0  0  0  0  0  0  0  0  0  0
    1.2840    7.0060   53.0350 C   0  0  0  0  0  0  0  0  0  0  0  0
    2.3970    6.4630   52.4220 C   0  0  0  0  0  0  0  0  0  0  0  0
    4.4780   10.9530   56.4900 C   0  0  0  0  0  0  0  0  0  0  0  0
    2.6800    7.9540   54.7430 C   0  0  0  0  0  0  0  0  0  0  0  0
    2.8600    5.4600   50.1190 C   0  0  0  0  0  0  0  0  0  0  0  0
    0.0640    6.5930   52.2950 C   0  0  0  0  0  0  0  0  0  0  0  0
    0.6290    5.7770   51.1450 C   0  0  0  0  0  0  0  0  0  0  0  0
   -0.0270   -0.1570   49.0150 C   0  0  0  0  0  0  0  0  0  0  0  0
    0.1220    0.4620   50.4190 C   0  0  0  0  0  0  0  0  0  0  0  0
    1.5670    0.7840   50.8370 C   0  0  0  0  0  0  0  0  0  0  0  0
    2.0640    2.1850   50.4410 C   0  0  0  0  0  0  0  0  0  0  0  0
    1.8550    2.4950   48.9550 C   0  0  0  0  0  0  0  0  0  0  0  0
    2.6150    3.7060   48.4170 C   0  0  0  0  0  0  0  0  0  0  0  0
    2.0650    5.8630   51.1910 N   0  0  0  0  0  0  0  0  0  0  0  0
    3.8250   10.0890   55.7410 N   0  0  0  0  0  0  0  0  0  0  0  0
    2.1810    4.9260   49.0550 N   0  0  0  0  0  0  0  0  0  0  0  0
    4.0780    5.5570   50.1050 O   0  0  0  0  0  0  0  0  0  0  0  0
    3.8730    7.9950   57.0640 O   0  0  0  0  0  0  0  0  0  0  0  0
    1.7710    9.2240   56.8500 O   0  0  0  0  0  0  0  0  0  0  0  0
    3.0140    8.8220   56.2620 S   0  0  2  0  0  0  0  0  0  0  0  0
  1  2  2  0
  1  3  1  0
  2  5  1  0
  3  6  2  0
  4  7  2  0
  4 10  1  0
  5 11  2  0
  6 11  1  0
  7 12  1  0
  8  9  1  0
  8 12  2  0
  9 10  2  0
  9 14  1  0
 10 22  1  0
 11 23  1  0
 12 28  1  0
 13 22  1  0
 13 24  1  0
 13 25  2  0
 14 15  1  0
 15 22  1  0
 16 17  1  0
 17 18  1  0
 18 19  1  0
 19 20  1  0
 20 21  1  0
 21 24  1  0
 23 28  2  0
 26 28  2  0
 28 27  1  1
M  CHG  1  27  -1
M  END
>  <washed_aromatic_smiles>  (14) 
CCCCCCNC(=O)N1CCc2c1ccc(c2)S(=O)(=O)Nc3ccccc3

>  <name>  (14) 
ch344

$$$$
ch345
     RDKit          3D

 30 33  0  0  0  0  0  0  0  0999 V2000
    5.8190   12.8950   58.7750 C   0  0  0  0  0  0  0  0  0  0  0  0
    5.5680   11.5380   58.9340 C   0  0  0  0  0  0  0  0  0  0  0  0
    5.7080   13.4550   57.5070 C   0  0  0  0  0  0  0  0  0  0  0  0
    3.6320    6.7510   53.3510 C   0  0  0  0  0  0  0  0  0  0  0  0
    5.2330   10.7460   57.8580 C   0  0  0  0  0  0  0  0  0  0  0  0
    5.4210   12.6730   56.4000 C   0  0  0  0  0  0  0  0  0  0  0  0
    4.3890    7.8530   53.7510 C   0  0  0  0  0  0  0  0  0  0  0  0
    2.6400    9.3360   53.0490 C   0  0  0  0  0  0  0  0  0  0  0  0
    3.0350    4.3300   49.2470 C   0  0  0  0  0  0  0  0  0  0  0  0
    1.8220    8.2420   52.8360 C   0  0  0  0  0  0  0  0  0  0  0  0
    2.3650    6.9800   52.8410 C   0  0  0  0  0  0  0  0  0  0  0  0
    5.2000   11.2760   56.5460 C   0  0  0  0  0  0  0  0  0  0  0  0
    3.9330    9.1540   53.5370 C   0  0  0  0  0  0  0  0  0  0  0  0
    2.0290    3.5830   49.7740 C   0  0  0  0  0  0  0  0  0  0  0  0
    1.9630    5.2690   51.1630 C   0  0  0  0  0  0  0  0  0  0  0  0
    0.3580    8.1500   52.5850 C   0  0  0  0  0  0  0  0  0  0  0  0
    0.2180    6.7030   52.0710 C   0  0  0  0  0  0  0  0  0  0  0  0
    2.9340   -0.4750   54.9300 C   0  0  0  0  0  0  0  0  0  0  0  0
    1.6270    2.2050   49.2820 C   0  0  0  0  0  0  0  0  0  0  0  0
    2.5480    0.6010   53.9310 C   0  0  0  0  0  0  0  0  0  0  0  0
    2.1730    1.0540   50.1490 C   0  0  0  0  0  0  0  0  0  0  0  0
    2.3790    0.0600   52.5060 C   0  0  0  0  0  0  0  0  0  0  0  0
    1.8880    1.2220   51.6410 C   0  0  0  0  0  0  0  0  0  0  0  0
    1.4020    4.1410   50.8490 N   0  0  0  0  0  0  0  0  0  0  0  0
    1.5130    6.0400   52.2570 N   0  0  0  0  0  0  0  0  0  0  0  0
    4.9960   10.4320   55.5490 N   0  0  0  0  0  0  0  0  0  0  0  0
    4.4500   11.7420   53.4790 O   0  0  0  0  0  0  0  0  0  0  0  0
    6.3400   10.1920   53.4680 O   0  0  0  0  0  0  0  0  0  0  0  0
    3.2620    5.7750   50.1420 S   0  0  0  0  0  0  0  0  0  0  0  0
    5.0240   10.5100   53.9470 S   0  0  2  0  0  0  0  0  0  0  0  0
  1  2  2  0
  1  3  1  0
  2  5  1  0
  3  6  2  0
  4  7  2  0
  4 11  1  0
  5 12  2  0
  6 12  1  0
  7 13  1  0
  8 10  1  0
  8 13  2  0
  9 14  2  0
  9 29  1  0
 10 11  2  0
 10 16  1  0
 11 25  1  0
 12 26  1  0
 13 30  1  0
 14 19  1  0
 14 24  1  0
 15 24  2  0
 15 25  1  0
 15 29  1  0
 16 17  1  0
 17 25  1  0
 18 20  1  0
 19 21  1  0
 20 22  1  0
 21 23  1  0
 22 23  1  0
 26 30  2  0
 27 30  2  0
 30 28  1  6
M  CHG  1  28  -1
M  END
>  <washed_aromatic_smiles>  (15) 
CCCCCCc1csc(n1)N2CCc3c2ccc(c3)S(=O)(=O)Nc4ccccc4

>  <name>  (15) 
ch345

$$$$
ch347
     RDKit          3D

 30 33  0  0  0  0  0  0  0  0999 V2000
   -0.6790    0.0100   48.7100 C   0  0  0  0  0  0  0  0  0  0  0  0
    0.2850    0.6390   47.9300 C   0  0  0  0  0  0  0  0  0  0  0  0
   -0.7290    0.2990   50.0740 C   0  0  0  0  0  0  0  0  0  0  0  0
    3.2950    6.3880   52.8820 C   0  0  0  0  0  0  0  0  0  0  0  0
    1.2400    1.4340   48.5290 C   0  0  0  0  0  0  0  0  0  0  0  0
    0.2640    1.0210   50.6880 C   0  0  0  0  0  0  0  0  0  0  0  0
    3.5860    5.0670   52.7270 C   0  0  0  0  0  0  0  0  0  0  0  0
    1.5570    4.6620   51.5810 C   0  0  0  0  0  0  0  0  0  0  0  0
    1.1850    5.9620   51.9050 C   0  0  0  0  0  0  0  0  0  0  0  0
    2.0610    6.8370   52.4860 C   0  0  0  0  0  0  0  0  0  0  0  0
    1.3640    1.5030   49.9340 C   0  0  0  0  0  0  0  0  0  0  0  0
    2.7430    4.1180   52.0970 C   0  0  0  0  0  0  0  0  0  0  0  0
    4.0070    9.3180   54.4800 C   0  0  0  0  0  0  0  0  0  0  0  0
    2.2240    8.8280   53.7000 C   0  0  0  0  0  0  0  0  0  0  0  0
   -0.1380    6.5990   51.8690 C   0  0  0  0  0  0  0  0  0  0  0  0
    0.1120    7.9740   52.5530 C   0  0  0  0  0  0  0  0  0  0  0  0
    3.7360   13.3820   55.2810 C   0  0  0  0  0  0  0  0  0  0  0  0
    5.4950    9.3810   54.6590 C   0  0  0  0  0  0  0  0  0  0  0  0
    5.1980   13.6420   55.4330 C   0  0  0  0  0  0  0  0  0  0  0  0
    6.1800   10.3030   53.6410 C   0  0  0  0  0  0  0  0  0  0  0  0
    5.9360   12.3350   55.2230 C   0  0  0  0  0  0  0  0  0  0  0  0
    5.7930   11.7710   53.7860 C   0  0  0  0  0  0  0  0  0  0  0  0
    3.4290    9.2950   53.3600 N   0  0  0  0  0  0  0  0  0  0  0  0
    1.9910    8.7590   54.9570 N   0  0  0  0  0  0  0  0  0  0  0  0
    1.5350    8.1100   52.7230 N   0  0  0  0  0  0  0  0  0  0  0  0
    2.4940    1.9750   50.4410 N   0  0  0  0  0  0  0  0  0  0  0  0
    2.1100    1.5430   52.8790 O   0  0  0  0  0  0  0  0  0  0  0  0
    4.3320    1.8060   52.0720 O   0  0  0  0  0  0  0  0  0  0  0  0
    3.1700    9.0830   55.4850 O   0  0  0  0  0  0  0  0  0  0  0  0
    2.9700    2.2170   51.9540 S   0  0  2  0  0  0  0  0  0  0  0  0
  1  2  2  0
  1  3  1  0
  2  5  1  0
  3  6  2  0
  4  7  2  0
  4 10  1  0
  5 11  2  0
  6 11  1  0
  7 12  1  0
  8  9  1  0
  8 12  2  0
  9 10  2  0
  9 15  1  0
 10 25  1  0
 11 26  1  0
 12 30  1  0
 13 18  1  0
 13 23  2  0
 13 29  1  0
 14 23  1  0
 14 24  2  0
 14 25  1  0
 15 16  1  0
 16 25  1  0
 17 19  1  0
 18 20  1  0
 19 21  1  0
 20 22  1  0
 21 22  1  0
 24 29  1  0
 26 30  2  0
 27 30  2  0
 30 28  1  6
M  CHG  1  28  -1
M  END
>  <washed_aromatic_smiles>  (16) 
CCCCCCc1nc(no1)N2CCc3c2ccc(c3)S(=O)(=O)Nc4ccccc4

>  <name>  (16) 
ch347

$$$$
ch349
     RDKit          3D

 33 36  0  0  0  0  0  0  0  0999 V2000
    0.4370    1.3000   45.8580 C   0  0  0  0  0  0  0  0  0  0  0  0
   -0.0830    1.6890   47.0770 C   0  0  0  0  0  0  0  0  0  0  0  0
    1.1850    0.1460   45.7910 C   0  0  0  0  0  0  0  0  0  0  0  0
    0.1370    6.9490   52.2530 C   0  0  0  0  0  0  0  0  0  0  0  0
    0.6720    7.7990   53.2190 C   0  0  0  0  0  0  0  0  0  0  0  0
    0.9660    6.1520   51.4800 C   0  0  0  0  0  0  0  0  0  0  0  0
    2.8450    3.2290   52.0840 C   0  0  0  0  0  0  0  0  0  0  0  0
    0.1280    0.9420   48.2160 C   0  0  0  0  0  0  0  0  0  0  0  0
    1.4190   -0.6220   46.9190 C   0  0  0  0  0  0  0  0  0  0  0  0
    2.4840    1.9020   51.9590 C   0  0  0  0  0  0  0  0  0  0  0  0
    2.4140    2.1500   49.5650 C   0  0  0  0  0  0  0  0  0  0  0  0
    2.8760    6.9850   52.7080 C   0  0  0  0  0  0  0  0  0  0  0  0
    2.7330    3.4900   49.6930 C   0  0  0  0  0  0  0  0  0  0  0  0
    2.0490    7.8230   53.4410 C   0  0  0  0  0  0  0  0  0  0  0  0
    2.3400    6.1820   51.7060 C   0  0  0  0  0  0  0  0  0  0  0  0
    2.8980    4.0180   50.9490 C   0  0  0  0  0  0  0  0  0  0  0  0
    0.9220   -0.2220   48.1890 C   0  0  0  0  0  0  0  0  0  0  0  0
    2.1790    1.3660   50.7090 C   0  0  0  0  0  0  0  0  0  0  0  0
    2.9650    4.5570   48.6690 C   0  0  0  0  0  0  0  0  0  0  0  0
    3.5070    5.7020   49.5440 C   0  0  0  0  0  0  0  0  0  0  0  0
    5.5990   13.2970   57.4240 C   0  0  0  0  0  0  0  0  0  0  0  0
    2.6700    8.7840   54.4250 C   0  0  0  0  0  0  0  0  0  0  0  0
    5.1460   11.8620   57.1400 C   0  0  0  0  0  0  0  0  0  0  0  0
    3.5260    8.1320   55.5180 C   0  0  0  0  0  0  0  0  0  0  0  0
    5.0550   10.9910   58.4050 C   0  0  0  0  0  0  0  0  0  0  0  0
    4.8810    8.8330   55.7000 C   0  0  0  0  0  0  0  0  0  0  0  0
    4.6790    9.5140   58.1940 C   0  0  0  0  0  0  0  0  0  0  0  0
    5.4290    8.6880   57.1310 C   0  0  0  0  0  0  0  0  0  0  0  0
    3.1930    5.3740   50.9410 N   0  0  0  0  0  0  0  0  0  0  0  0
    1.3120   -0.8430   49.2990 N   0  0  0  0  0  0  0  0  0  0  0  0
    0.0330    0.0460   51.2560 O   0  0  0  0  0  0  0  0  0  0  0  0
    2.1820   -1.0710   51.6190 O   0  0  0  0  0  0  0  0  0  0  0  0
    1.3640   -0.2270   50.7900 S   0  0  2  0  0  0  0  0  0  0  0  0
  1  2  2  0
  1  3  1  0
  2  8  1  0
  3  9  2  0
  4  5  2  0
  4  6  1  0
  5 14  1  0
  6 15  2  0
  7 10  2  0
  7 16  1  0
  8 17  2  0
  9 17  1  0
 10 18  1  0
 11 13  1  0
 11 18  2  0
 12 14  2  0
 12 15  1  0
 13 16  2  0
 13 19  1  0
 14 22  1  0
 15 29  1  0
 16 29  1  0
 17 30  1  0
 18 33  1  0
 19 20  1  0
 20 29  1  0
 21 23  1  0
 22 24  1  0
 23 25  1  0
 24 26  1  0
 25 27  1  0
 26 28  1  0
 27 28  1  0
 30 33  2  0
 31 33  2  0
 33 32  1  1
M  CHG  1  32  -1
M  END
>  <washed_aromatic_smiles>  (17) 
CCCCCCCCc1cccc(c1)N2CCc3c2ccc(c3)S(=O)(=O)Nc4ccccc4

>  <name>  (17) 
ch349

$$$$
ch350
     RDKit          3D

 29 31  0  0  0  0  0  0  0  0999 V2000
    5.2660   13.1380   53.5490 C   0  0  0  0  0  0  0  0  0  0  0  0
    4.9550   13.6000   54.8260 C   0  0  0  0  0  0  0  0  0  0  0  0
    5.6880   11.8260   53.3930 C   0  0  0  0  0  0  0  0  0  0  0  0
    4.2100    7.8190   54.3680 C   0  0  0  0  0  0  0  0  0  0  0  0
    5.0610   12.7960   55.9350 C   0  0  0  0  0  0  0  0  0  0  0  0
    5.8220   11.0070   54.4930 C   0  0  0  0  0  0  0  0  0  0  0  0
    4.6510    8.3850   55.5430 C   0  0  0  0  0  0  0  0  0  0  0  0
    2.4110    9.1250   56.0590 C   0  0  0  0  0  0  0  0  0  0  0  0
    1.9530    8.4950   54.9010 C   0  0  0  0  0  0  0  0  0  0  0  0
    2.8530    7.8260   54.1010 C   0  0  0  0  0  0  0  0  0  0  0  0
    5.5230   11.4720   55.8100 C   0  0  0  0  0  0  0  0  0  0  0  0
    3.7740    9.0810   56.3700 C   0  0  0  0  0  0  0  0  0  0  0  0
    2.7580    6.1110   52.3500 C   0  0  0  0  0  0  0  0  0  0  0  0
    0.5700    8.3280   54.3320 C   0  0  0  0  0  0  0  0  0  0  0  0
    0.7980    7.4890   53.0680 C   0  0  0  0  0  0  0  0  0  0  0  0
    0.7920    0.6910   45.6660 C   0  0  0  0  0  0  0  0  0  0  0  0
    2.0950    5.6470   51.0890 C   0  0  0  0  0  0  0  0  0  0  0  0
   -0.0420    1.1100   46.8800 C   0  0  0  0  0  0  0  0  0  0  0  0
    3.1140    5.5510   49.9390 C   0  0  0  0  0  0  0  0  0  0  0  0
    0.8110    1.5070   48.0730 C   0  0  0  0  0  0  0  0  0  0  0  0
    2.6340    4.7890   48.7150 C   0  0  0  0  0  0  0  0  0  0  0  0
    1.4290    2.8790   47.8090 C   0  0  0  0  0  0  0  0  0  0  0  0
    2.1770    3.3620   49.0260 C   0  0  0  0  0  0  0  0  0  0  0  0
    2.2150    7.1530   53.0560 N   0  0  0  0  0  0  0  0  0  0  0  0
    5.7250   10.7260   56.8890 N   0  0  0  0  0  0  0  0  0  0  0  0
    3.7290    5.5240   52.7840 O   0  0  0  0  0  0  0  0  0  0  0  0
    5.0530    9.1030   58.6450 O   0  0  0  0  0  0  0  0  0  0  0  0
    3.6290   11.0150   58.1220 O   0  0  0  0  0  0  0  0  0  0  0  0
    4.5340   10.0190   57.6680 S   0  0  2  0  0  0  0  0  0  0  0  0
  1  2  2  0
  1  3  1  0
  2  5  1  0
  3  6  2  0
  4  7  2  0
  4 10  1  0
  5 11  2  0
  6 11  1  0
  7 12  1  0
  8  9  1  0
  8 12  2  0
  9 10  2  0
  9 14  1  0
 10 24  1  0
 11 25  1  0
 12 29  1  0
 13 17  1  0
 13 24  1  0
 13 26  2  0
 14 15  1  0
 15 24  1  0
 16 18  1  0
 17 19  1  0
 18 20  1  0
 19 21  1  0
 20 22  1  0
 21 23  1  0
 22 23  1  0
 25 29  2  0
 27 29  2  0
 29 28  1  1
M  CHG  1  28  -1
M  END
>  <washed_aromatic_smiles>  (18) 
CCCCCCCCC(=O)N1CCc2c1ccc(c2)S(=O)(=O)Nc3ccccc3

>  <name>  (18) 
ch350

$$$$
ch351
     RDKit          3D

 30 32  0  0  0  0  0  0  0  0999 V2000
   -0.1730   -0.1650   48.5130 C   0  0  0  0  0  0  0  0  0  0  0  0
   -0.1520    0.7200   47.4370 C   0  0  0  0  0  0  0  0  0  0  0  0
    0.3330    0.2540   49.7370 C   0  0  0  0  0  0  0  0  0  0  0  0
    0.7220    6.2010   52.3940 C   0  0  0  0  0  0  0  0  0  0  0  0
    0.3670    1.9800   47.5570 C   0  0  0  0  0  0  0  0  0  0  0  0
    0.8590    1.5180   49.8770 C   0  0  0  0  0  0  0  0  0  0  0  0
    1.0610    5.2300   51.4640 C   0  0  0  0  0  0  0  0  0  0  0  0
    2.9860    6.4920   50.7750 C   0  0  0  0  0  0  0  0  0  0  0  0
    2.6940    7.4200   51.7520 C   0  0  0  0  0  0  0  0  0  0  0  0
    1.5860    7.2720   52.5500 C   0  0  0  0  0  0  0  0  0  0  0  0
    0.9390    2.4140   48.7650 C   0  0  0  0  0  0  0  0  0  0  0  0
    2.1970    5.3600   50.6700 C   0  0  0  0  0  0  0  0  0  0  0  0
    2.1180    8.0510   54.7000 C   0  0  0  0  0  0  0  0  0  0  0  0
    3.3930    8.6700   52.1360 C   0  0  0  0  0  0  0  0  0  0  0  0
    2.2920    9.3890   52.8660 C   0  0  0  0  0  0  0  0  0  0  0  0
    7.0250   14.6420   60.3120 C   0  0  0  0  0  0  0  0  0  0  0  0
    6.6600   14.0900   58.9310 C   0  0  0  0  0  0  0  0  0  0  0  0
    6.0590   12.6790   59.0150 C   0  0  0  0  0  0  0  0  0  0  0  0
    5.5870   12.1830   57.6300 C   0  0  0  0  0  0  0  0  0  0  0  0
    5.4000   10.6520   57.5250 C   0  0  0  0  0  0  0  0  0  0  0  0
    4.4400   10.2960   56.3930 C   0  0  0  0  0  0  0  0  0  0  0  0
    3.0450   10.4150   56.9830 C   0  0  0  0  0  0  0  0  0  0  0  0
    2.2890    9.0990   56.9260 C   0  0  0  0  0  0  0  0  0  0  0  0
    1.5340    8.3090   53.4890 N   0  0  0  0  0  0  0  0  0  0  0  0
    1.5120    3.6070   48.7540 N   0  0  0  0  0  0  0  0  0  0  0  0
    1.6600    8.8820   55.6550 N   0  0  0  0  0  0  0  0  0  0  0  0
    3.0380    7.2440   54.8710 O   0  0  0  0  0  0  0  0  0  0  0  0
    3.1000    2.9810   50.5750 O   0  0  0  0  0  0  0  0  0  0  0  0
    3.7960    4.5250   48.8040 O   0  0  0  0  0  0  0  0  0  0  0  0
    2.7560    4.0300   49.6620 S   0  0  2  0  0  0  0  0  0  0  0  0
  1  2  2  0
  1  3  1  0
  2  5  1  0
  3  6  2  0
  4  7  2  0
  4 10  1  0
  5 11  2  0
  6 11  1  0
  7 12  1  0
  8  9  1  0
  8 12  2  0
  9 10  2  0
  9 14  1  0
 10 24  1  0
 11 25  1  0
 12 30  1  0
 13 24  1  0
 13 26  1  0
 13 27  2  0
 14 15  1  0
 15 24  1  0
 16 17  1  0
 17 18  1  0
 18 19  1  0
 19 20  1  0
 20 21  1  0
 21 22  1  0
 22 23  1  0
 23 26  1  0
 25 30  2  0
 28 30  2  0
 30 29  1  6
M  CHG  1  29  -1
M  END
>  <washed_aromatic_smiles>  (19) 
CCCCCCCCNC(=O)N1CCc2c1ccc(c2)S(=O)(=O)Nc3ccccc3

>  <name>  (19) 
ch351

$$$$
neg272547
     RDKit          3D

 26 26  0  0  0  0  0  0  0  0999 V2000
    1.9580    3.8270   50.8480 C   0  0  0  0  0  0  0  0  0  0  0  0
    3.1540    5.8550   49.3410 C   0  0  0  0  0  0  0  0  0  0  0  0
    3.7440    8.9070   53.1850 C   0  0  0  0  0  0  0  0  0  0  0  0
    2.3880    0.2290   51.1710 C   0  0  0  0  0  0  0  0  0  0  0  0
    2.1100    5.2300   51.4880 C   0  0  0  0  0  0  0  0  0  0  0  0
    2.8660    4.4450   48.7830 C   0  0  0  0  0  0  0  0  0  0  0  0
    3.1940    5.1400   52.5710 C   0  0  0  0  0  0  0  0  0  0  0  0
    0.7270    5.7540   51.9720 C   0  0  0  0  0  0  0  0  0  0  0  0
    1.5040    4.4410   48.0710 C   0  0  0  0  0  0  0  0  0  0  0  0
    3.9980    3.9710   47.8770 C   0  0  0  0  0  0  0  0  0  0  0  0
    6.1990   10.9030   52.7500 C   0  0  0  0  0  0  0  0  0  0  0  0
    2.5390   -0.4490   54.7110 C   0  0  0  0  0  0  0  0  0  0  0  0
    2.6070    8.2460   52.4400 C   0  0  0  0  0  0  0  0  0  0  0  0
    3.3350    1.1990   50.5450 C   0  0  0  0  0  0  0  0  0  0  0  0
    4.8940   11.0730   53.5180 C   0  0  0  0  0  0  0  0  0  0  0  0
    1.8020   -0.5540   53.3870 C   0  0  0  0  0  0  0  0  0  0  0  0
    2.6680    6.2130   50.5810 N   0  0  0  0  0  0  0  0  0  0  0  0
    2.7570    3.4720   49.8460 N   0  0  0  0  0  0  0  0  0  0  0  0
    1.1130    3.0000   51.1040 O   0  0  0  0  0  0  0  0  0  0  0  0
    3.7620    6.6810   48.6810 O   0  0  0  0  0  0  0  0  0  0  0  0
    4.4780    8.3260   53.9880 O   0  0  0  0  0  0  0  0  0  0  0  0
    1.8690   -0.7290   50.5970 O   0  0  0  0  0  0  0  0  0  0  0  0
    3.8600   10.2250   52.9970 O   0  0  0  0  0  0  0  0  0  0  0  0
    2.3140    0.4020   52.4850 O   0  0  0  0  0  0  0  0  0  0  0  0
    3.0110    7.4890   51.1680 O   0  0  0  0  0  0  0  0  0  0  0  0
    2.7440    2.0760   49.5230 O   0  0  0  0  0  0  0  0  0  0  0  0
  1  5  1  0
  1 18  1  0
  1 19  2  0
  2  6  1  0
  2 17  1  0
  2 20  2  0
  3 13  1  0
  3 21  2  0
  3 23  1  0
  4 14  1  0
  4 22  2  0
  4 24  1  0
  5  7  1  0
  5  8  1  0
  5 17  1  0
  6  9  1  0
  6 10  1  0
  6 18  1  0
 11 15  1  0
 12 16  1  0
 13 25  1  0
 14 26  1  0
 15 23  1  0
 16 24  1  0
 17 25  1  0
 18 26  1  0
M  END
>  <washed_aromatic_smiles>  (20) 
CCOC(=O)CON1C(=O)C(N(C(=O)C1(C)C)OCC(=O)OCC)(C)C

>  <name>  (20) 
neg272547

$$$$
neg185882
     RDKit          3D

 30 32  0  0  0  0  0  0  0  0999 V2000
    4.8250   11.8810   56.4600 C   0  0  0  0  0  0  0  0  0  0  0  0
    4.9640   10.1050   58.1110 C   0  0  0  0  0  0  0  0  0  0  0  0
    5.4030   12.7720   57.3560 C   0  0  0  0  0  0  0  0  0  0  0  0
    5.5450   10.9960   58.9960 C   0  0  0  0  0  0  0  0  0  0  0  0
    2.9110    3.6830   52.1000 C   0  0  0  0  0  0  0  0  0  0  0  0
    1.4320    4.3250   50.3360 C   0  0  0  0  0  0  0  0  0  0  0  0
    3.0410    5.0100   52.4890 C   0  0  0  0  0  0  0  0  0  0  0  0
    1.3940    5.6050   50.8760 C   0  0  0  0  0  0  0  0  0  0  0  0
    4.6090   10.5520   56.8400 C   0  0  0  0  0  0  0  0  0  0  0  0
    5.7620   12.3220   58.6280 C   0  0  0  0  0  0  0  0  0  0  0  0
    2.1590    3.3430   50.9880 C   0  0  0  0  0  0  0  0  0  0  0  0
    2.2350    5.9810   51.9250 C   0  0  0  0  0  0  0  0  0  0  0  0
    2.2080   -0.3550   51.1690 C   0  0  0  0  0  0  0  0  0  0  0  0
    4.8250    8.5370   55.4770 C   0  0  0  0  0  0  0  0  0  0  0  0
    2.7170    9.1670   56.2280 C   0  0  0  0  0  0  0  0  0  0  0  0
    4.2750    8.0710   54.1270 C   0  0  0  0  0  0  0  0  0  0  0  0
    2.0380    8.6750   54.9380 C   0  0  0  0  0  0  0  0  0  0  0  0
    2.6530    0.8070   54.2010 C   0  0  0  0  0  0  0  0  0  0  0  0
    6.9210   14.4440   59.2620 C   0  0  0  0  0  0  0  0  0  0  0  0
    2.9720    0.9260   50.9280 C   0  0  0  0  0  0  0  0  0  0  0  0
    2.3350   -0.6240   53.8070 C   0  0  0  0  0  0  0  0  0  0  0  0
    4.0390    9.6800   55.9160 N   0  0  0  0  0  0  0  0  0  0  0  0
    2.8100    7.7650   54.0640 N   0  0  0  0  0  0  0  0  0  0  0  0
    1.7190   -0.9820   50.2320 O   0  0  0  0  0  0  0  0  0  0  0  0
    3.0920    8.4110   51.6840 O   0  0  0  0  0  0  0  0  0  0  0  0
    0.8350    8.0790   52.5170 O   0  0  0  0  0  0  0  0  0  0  0  0
    6.3720   13.1440   59.5630 O   0  0  0  0  0  0  0  0  0  0  0  0
    2.0940    2.0390   50.5430 O   0  0  0  0  0  0  0  0  0  0  0  0
    2.0110   -0.8640   52.4060 O   0  0  0  0  0  0  0  0  0  0  0  0
    2.2060    7.6760   52.5100 S   0  0  0  0  0  0  0  0  0  0  0  0
  1  3  2  0
  1  9  1  0
  2  4  1  0
  2  9  2  0
  3 10  1  0
  4 10  2  0
  5  7  2  0
  5 11  1  0
  6  8  1  0
  6 11  2  0
  7 12  1  0
  8 12  2  0
  9 22  1  0
 10 27  1  0
 11 28  1  0
 12 30  1  0
 13 20  1  0
 13 24  2  0
 13 29  1  0
 14 16  1  0
 14 22  1  0
 15 17  1  0
 15 22  1  0
 16 23  1  0
 17 23  1  0
 18 21  1  0
 19 27  1  0
 20 28  1  0
 21 29  1  0
 23 30  1  0
 25 30  2  0
 26 30  2  0
M  END
>  <washed_aromatic_smiles>  (21) 
CCOC(=O)COc1ccc(cc1)S(=O)(=O)N2CCN(CC2)c3ccc(cc3)OC

>  <name>  (21) 
neg185882

$$$$
neg100405
     RDKit          3D

 25 26  0  0  0  0  0  0  0  0999 V2000
    1.2960    1.4310   49.3100 C   0  0  0  0  0  0  0  0  0  0  0  0
    2.9800    1.9540   50.9440 C   0  0  0  0  0  0  0  0  0  0  0  0
    2.0950    2.3580   49.9660 C   0  0  0  0  0  0  0  0  0  0  0  0
    1.3480    0.1060   49.7110 C   0  0  0  0  0  0  0  0  0  0  0  0
    2.9470    0.6920   51.4310 C   0  0  0  0  0  0  0  0  0  0  0  0
    2.1770   -0.2610   50.7730 C   0  0  0  0  0  0  0  0  0  0  0  0
    1.9920    3.7440   49.6600 C   0  0  0  0  0  0  0  0  0  0  0  0
    3.0350    8.1190   53.0860 C   0  0  0  0  0  0  0  0  0  0  0  0
    2.4670    4.6690   52.0910 C   0  0  0  0  0  0  0  0  0  0  0  0
    2.1890    5.9970   50.2170 C   0  0  0  0  0  0  0  0  0  0  0  0
    3.4460    5.6910   52.7130 C   0  0  0  0  0  0  0  0  0  0  0  0
    3.1110    6.9920   50.8280 C   0  0  0  0  0  0  0  0  0  0  0  0
    4.2410    8.6310   56.5730 C   0  0  0  0  0  0  0  0  0  0  0  0
   -0.7090   -0.3910   48.5760 C   0  0  0  0  0  0  0  0  0  0  0  0
    3.0320    1.0600   53.8210 C   0  0  0  0  0  0  0  0  0  0  0  0
    2.1810   -1.6970   52.5550 C   0  0  0  0  0  0  0  0  0  0  0  0
    3.3900    8.9930   55.3570 C   0  0  0  0  0  0  0  0  0  0  0  0
    2.4080    4.6790   50.6080 N   0  0  0  0  0  0  0  0  0  0  0  0
    3.0670    6.9990   52.2830 N   0  0  0  0  0  0  0  0  0  0  0  0
    1.5400    4.0950   48.5640 O   0  0  0  0  0  0  0  0  0  0  0  0
    2.7650    9.2370   52.6660 O   0  0  0  0  0  0  0  0  0  0  0  0
    0.5740   -0.8240   49.0680 O   0  0  0  0  0  0  0  0  0  0  0  0
    3.6420    0.5240   52.6000 O   0  0  0  0  0  0  0  0  0  0  0  0
    2.2190   -1.5230   51.1670 O   0  0  0  0  0  0  0  0  0  0  0  0
    3.3360    7.9130   54.3970 O   0  0  0  0  0  0  0  0  0  0  0  0
  1  3  2  0
  1  4  1  0
  2  3  1  0
  2  5  2  0
  3  7  1  0
  4  6  2  0
  4 22  1  0
  5  6  1  0
  5 23  1  0
  6 24  1  0
  7 18  1  0
  7 20  2  0
  8 19  1  0
  8 21  2  0
  8 25  1  0
  9 11  1  0
  9 18  1  0
 10 12  1  0
 10 18  1  0
 11 19  1  0
 12 19  1  0
 13 17  1  0
 14 22  1  0
 15 23  1  0
 16 24  1  0
 17 25  1  0
M  END
>  <washed_aromatic_smiles>  (22) 
CCOC(=O)N1CCN(CC1)C(=O)c2cc(c(c(c2)OC)OC)OC

>  <name>  (22) 
neg100405

$$$$
neg55418
     RDKit          3D

 30 32  0  0  0  0  0  0  0  0999 V2000
    3.1550    8.4800   52.1480 C   0  0  0  0  0  0  0  0  0  0  0  0
    1.6260    6.7260   52.6650 C   0  0  0  0  0  0  0  0  0  0  0  0
    6.0890    9.4330   53.9730 C   0  0  0  0  0  0  0  0  0  0  0  0
    5.5080   11.7610   54.2870 C   0  0  0  0  0  0  0  0  0  0  0  0
    2.9220    9.0800   53.3540 C   0  0  0  0  0  0  0  0  0  0  0  0
    1.3930    7.3180   53.8930 C   0  0  0  0  0  0  0  0  0  0  0  0
    5.3290    9.0910   55.0740 C   0  0  0  0  0  0  0  0  0  0  0  0
    4.7550   11.4210   55.3880 C   0  0  0  0  0  0  0  0  0  0  0  0
    2.6160    7.2240   51.7890 C   0  0  0  0  0  0  0  0  0  0  0  0
    6.0860   10.7510   53.5340 C   0  0  0  0  0  0  0  0  0  0  0  0
    2.1790    8.4140   54.3590 C   0  0  0  0  0  0  0  0  0  0  0  0
    4.5700   10.0760   55.6910 C   0  0  0  0  0  0  0  0  0  0  0  0
    3.0640    6.6300   50.5350 C   0  0  0  0  0  0  0  0  0  0  0  0
    1.0200    2.0560   48.7460 C   0  0  0  0  0  0  0  0  0  0  0  0
    2.7370    4.1910   51.0610 C   0  0  0  0  0  0  0  0  0  0  0  0
    3.2700    4.8600   48.7780 C   0  0  0  0  0  0  0  0  0  0  0  0
    1.3920    3.7200   50.5820 C   0  0  0  0  0  0  0  0  0  0  0  0
    1.9430    4.2960   48.2530 C   0  0  0  0  0  0  0  0  0  0  0  0
    6.6440   11.0850   52.2070 C   0  0  0  0  0  0  0  0  0  0  0  0
    1.9380   -0.6460   50.7580 C   0  0  0  0  0  0  0  0  0  0  0  0
    0.9580   -0.1990   49.6740 C   0  0  0  0  0  0  0  0  0  0  0  0
    3.1890    5.2750   50.2150 N   0  0  0  0  0  0  0  0  0  0  0  0
    1.3980    3.3070   49.1660 N   0  0  0  0  0  0  0  0  0  0  0  0
    2.2480    8.7000   55.6560 N   0  0  0  0  0  0  0  0  0  0  0  0
    3.4650    7.3530   49.6260 O   0  0  0  0  0  0  0  0  0  0  0  0
    0.9400    1.7210   47.5680 O   0  0  0  0  0  0  0  0  0  0  0  0
    2.4840   10.8330   56.9500 O   0  0  0  0  0  0  0  0  0  0  0  0
    3.6440    8.8390   57.7440 O   0  0  0  0  0  0  0  0  0  0  0  0
    0.7600    1.2020   49.7470 O   0  0  0  0  0  0  0  0  0  0  0  0
    3.1680    9.6210   56.6450 S   0  0  2  0  0  0  0  0  0  0  0  0
  1  5  2  0
  1  9  1  0
  2  6  1  0
  2  9  2  0
  3  7  2  0
  3 10  1  0
  4  8  1  0
  4 10  2  0
  5 11  1  0
  6 11  2  0
  7 12  1  0
  8 12  2  0
  9 13  1  0
 10 19  1  0
 11 24  1  0
 12 30  1  0
 13 22  1  0
 13 25  2  0
 14 23  1  0
 14 26  2  0
 14 29  1  0
 15 17  1  0
 15 22  1  0
 16 18  1  0
 16 22  1  0
 17 23  1  0
 18 23  1  0
 20 21  1  0
 21 29  1  0
 24 30  2  0
 27 30  2  0
 30 28  1  1
M  CHG  1  28  -1
M  END
>  <washed_aromatic_smiles>  (23) 
CCOC(=O)N1CCN(CC1)C(=O)c2ccc(cc2)NS(=O)(=O)c3ccc(cc3)C

>  <name>  (23) 
neg55418

$$$$
neg261234
     RDKit          3D

 26 27  0  0  0  0  0  0  0  0999 V2000
    3.8360    9.0340   54.5420 C   0  0  0  0  0  0  0  0  0  0  0  0
    1.4780    8.4690   54.2940 C   0  0  0  0  0  0  0  0  0  0  0  0
    2.3330    9.2130   56.4390 C   0  0  0  0  0  0  0  0  0  0  0  0
    2.7600    8.5830   53.7800 C   0  0  0  0  0  0  0  0  0  0  0  0
    3.6070    9.3570   55.8760 C   0  0  0  0  0  0  0  0  0  0  0  0
    1.2770    8.7810   55.6240 C   0  0  0  0  0  0  0  0  0  0  0  0
    3.0490    6.8620   52.1390 C   0  0  0  0  0  0  0  0  0  0  0  0
    0.2750    0.8980   49.9310 C   0  0  0  0  0  0  0  0  0  0  0  0
    1.3250    2.8190   48.6810 C   0  0  0  0  0  0  0  0  0  0  0  0
    2.1040    2.1760   50.9850 C   0  0  0  0  0  0  0  0  0  0  0  0
    1.7720    4.2450   48.9710 C   0  0  0  0  0  0  0  0  0  0  0  0
    2.4400    3.6610   51.1570 C   0  0  0  0  0  0  0  0  0  0  0  0
    0.4970    0.7270   46.3880 C   0  0  0  0  0  0  0  0  0  0  0  0
    4.6100   10.3150   57.9590 C   0  0  0  0  0  0  0  0  0  0  0  0
   -0.5290    8.5140   57.4390 C   0  0  0  0  0  0  0  0  0  0  0  0
    2.7840    6.5940   50.6920 C   0  0  0  0  0  0  0  0  0  0  0  0
    3.5640    5.5090   49.9750 C   0  0  0  0  0  0  0  0  0  0  0  0
    0.8320    0.0490   47.7140 C   0  0  0  0  0  0  0  0  0  0  0  0
    1.1700    1.9510   49.8780 N   0  0  0  0  0  0  0  0  0  0  0  0
    2.9130    4.2080   49.8810 N   0  0  0  0  0  0  0  0  0  0  0  0
    2.9260    8.1800   52.4670 N   0  0  0  0  0  0  0  0  0  0  0  0
    3.3250    6.0230   52.9740 O   0  0  0  0  0  0  0  0  0  0  0  0
   -0.1620    0.4640   50.9910 O   0  0  0  0  0  0  0  0  0  0  0  0
    4.6840    9.8290   56.6020 O   0  0  0  0  0  0  0  0  0  0  0  0
   -0.0310    8.6200   56.0850 O   0  0  0  0  0  0  0  0  0  0  0  0
   -0.1170    0.3200   48.7670 O   0  0  0  0  0  0  0  0  0  0  0  0
  1  4  2  0
  1  5  1  0
  2  4  1  0
  2  6  2  0
  3  5  2  0
  3  6  1  0
  4 21  1  0
  5 24  1  0
  6 25  1  0
  7 16  1  0
  7 21  1  0
  7 22  2  0
  8 19  1  0
  8 23  2  0
  8 26  1  0
  9 11  1  0
  9 19  1  0
 10 12  1  0
 10 19  1  0
 11 20  1  0
 12 20  1  0
 13 18  1  0
 14 24  1  0
 15 25  1  0
 16 17  1  0
 17 20  1  0
 18 26  1  0
M  END
>  <washed_aromatic_smiles>  (24) 
CCOC(=O)N1CCN(CC1)CCC(=O)Nc2cc(cc(c2)OC)OC

>  <name>  (24) 
neg261234

$$$$
neg271644
     RDKit          3D

 29 30  0  0  0  0  0  0  0  0999 V2000
    3.0200   -0.4700   53.8940 C   0  0  0  0  0  0  0  0  0  0  0  0
    0.8250    0.3000   46.7470 C   0  0  0  0  0  0  0  0  0  0  0  0
    3.0030    0.8810   54.1800 C   0  0  0  0  0  0  0  0  0  0  0  0
    3.0360   -0.8790   52.5690 C   0  0  0  0  0  0  0  0  0  0  0  0
    0.8460    1.6750   46.7510 C   0  0  0  0  0  0  0  0  0  0  0  0
    0.9350   -0.3830   47.9420 C   0  0  0  0  0  0  0  0  0  0  0  0
    2.8920    1.7960   53.1440 C   0  0  0  0  0  0  0  0  0  0  0  0
    3.0270    0.0500   51.5370 C   0  0  0  0  0  0  0  0  0  0  0  0
    1.1870    2.3770   47.9050 C   0  0  0  0  0  0  0  0  0  0  0  0
    1.1510    0.3190   49.1080 C   0  0  0  0  0  0  0  0  0  0  0  0
    2.7930    1.3960   51.8120 C   0  0  0  0  0  0  0  0  0  0  0  0
    1.4250    1.6880   49.1010 C   0  0  0  0  0  0  0  0  0  0  0  0
    3.2260    6.1960   52.4150 C   0  0  0  0  0  0  0  0  0  0  0  0
    2.2190    8.4140   54.3450 C   0  0  0  0  0  0  0  0  0  0  0  0
    3.5450    7.6460   54.3750 C   0  0  0  0  0  0  0  0  0  0  0  0
    2.3410    4.3840   50.7030 C   0  0  0  0  0  0  0  0  0  0  0  0
    1.0420    5.2110   50.6840 C   0  0  0  0  0  0  0  0  0  0  0  0
    3.2080    4.8000   49.4260 C   0  0  0  0  0  0  0  0  0  0  0  0
    3.0340    4.8830   51.9910 N   0  0  0  0  0  0  0  0  0  0  0  0
    3.1450    7.1850   51.7040 O   0  0  0  0  0  0  0  0  0  0  0  0
    0.4920    2.1940   51.3200 O   0  0  0  0  0  0  0  0  0  0  0  0
    3.4760    6.3430   53.7230 O   0  0  0  0  0  0  0  0  0  0  0  0
    0.3200    4.8600   51.6980 F   0  0  0  0  0  0  0  0  0  0  0  0
    0.4120    5.0430   49.5570 F   0  0  0  0  0  0  0  0  0  0  0  0
    1.0190    6.4670   50.8610 F   0  0  0  0  0  0  0  0  0  0  0  0
    3.5640    3.7510   48.7170 F   0  0  0  0  0  0  0  0  0  0  0  0
    2.6430    5.5500   48.5180 F   0  0  0  0  0  0  0  0  0  0  0  0
    4.3300    5.4450   49.7120 F   0  0  0  0  0  0  0  0  0  0  0  0
    1.7870    2.4310   50.7080 P   0  0  0  0  0  0  0  0  0  0  0  0
  1  3  2  0
  1  4  1  0
  2  5  2  0
  2  6  1  0
  3  7  1  0
  4  8  2  0
  5  9  1  0
  6 10  2  0
  7 11  2  0
  8 11  1  0
  9 12  2  0
 10 12  1  0
 11 29  1  0
 12 29  1  0
 13 19  1  0
 13 20  2  0
 13 22  1  0
 14 15  1  0
 15 22  1  0
 16 17  1  0
 16 18  1  0
 16 19  1  0
 16 29  1  0
 17 23  1  0
 17 24  1  0
 17 25  1  0
 18 26  1  0
 18 27  1  0
 18 28  1  0
 21 29  2  0
M  END
>  <washed_aromatic_smiles>  (25) 
CCOC(=O)NC(C(F)(F)F)(C(F)(F)F)P(=O)(c1ccccc1)c2ccccc2

>  <name>  (25) 
neg271644

$$$$
neg210492
     RDKit          3D

 26 28  0  0  0  0  0  0  0  0999 V2000
   -2.6690    7.0570   59.3650 C   0  0  0  0  0  0  0  0  0  0  0  0
    2.7150    3.5310   49.3600 C   0  0  0  0  0  0  0  0  0  0  0  0
   -2.4960    6.4920   58.1150 C   0  0  0  0  0  0  0  0  0  0  0  0
   -1.9040    8.1570   59.6880 C   0  0  0  0  0  0  0  0  0  0  0  0
    3.2830    4.6710   48.7970 C   0  0  0  0  0  0  0  0  0  0  0  0
    2.1990    3.5770   50.6510 C   0  0  0  0  0  0  0  0  0  0  0  0
   -1.5360    7.0170   57.2500 C   0  0  0  0  0  0  0  0  0  0  0  0
   -1.0380    8.6830   58.7370 C   0  0  0  0  0  0  0  0  0  0  0  0
    3.3100    5.8660   49.5080 C   0  0  0  0  0  0  0  0  0  0  0  0
    2.2260    4.7670   51.3690 C   0  0  0  0  0  0  0  0  0  0  0  0
    0.2660    8.5140   55.1410 C   0  0  0  0  0  0  0  0  0  0  0  0
   -0.8150    8.1590   57.4920 C   0  0  0  0  0  0  0  0  0  0  0  0
    2.7610    5.9140   50.7910 C   0  0  0  0  0  0  0  0  0  0  0  0
    1.5520    8.6860   54.6010 C   0  0  0  0  0  0  0  0  0  0  0  0
    0.1970    8.6750   56.5250 C   0  0  0  0  0  0  0  0  0  0  0  0
    2.5090    9.0990   55.5070 C   0  0  0  0  0  0  0  0  0  0  0  0
    3.8950    9.4570   55.2930 C   0  0  0  0  0  0  0  0  0  0  0  0
    2.6090    7.3480   52.8290 C   0  0  0  0  0  0  0  0  0  0  0  0
    5.0870   12.3410   55.8890 C   0  0  0  0  0  0  0  0  0  0  0  0
    4.4120   11.3050   56.7910 C   0  0  0  0  0  0  0  0  0  0  0  0
    2.6670    7.1580   51.4630 N   0  0  0  0  0  0  0  0  0  0  0  0
    1.8300    8.4180   53.2260 N   0  0  0  0  0  0  0  0  0  0  0  0
    4.4960    9.3890   54.2290 O   0  0  0  0  0  0  0  0  0  0  0  0
    3.1880    6.6150   53.6300 O   0  0  0  0  0  0  0  0  0  0  0  0
    4.6180    9.9430   56.3320 O   0  0  0  0  0  0  0  0  0  0  0  0
    1.7780    9.1880   57.0740 S   0  0  0  0  0  0  0  0  0  0  0  0
  1  3  2  0
  1  4  1  0
  2  5  2  0
  2  6  1  0
  3  7  1  0
  4  8  2  0
  5  9  1  0
  6 10  2  0
  7 12  2  0
  8 12  1  0
  9 13  2  0
 10 13  1  0
 11 14  1  0
 11 15  2  0
 12 15  1  0
 13 21  1  0
 14 16  2  0
 14 22  1  0
 15 26  1  0
 16 17  1  0
 16 26  1  0
 17 23  2  0
 17 25  1  0
 18 21  1  0
 18 22  1  0
 18 24  2  0
 19 20  1  0
 20 25  1  0
M  END
>  <washed_aromatic_smiles>  (26) 
CCOC(=O)c1c(cc(s1)c2ccccc2)NC(=O)Nc3ccccc3

>  <name>  (26) 
neg210492

$$$$
neg75718
     RDKit          3D

 28 29  0  0  0  0  0  0  0  0999 V2000
    1.8290    0.8840   50.2110 C   0  0  0  0  0  0  0  0  0  0  0  0
    1.1200    0.7040   49.0290 C   0  0  0  0  0  0  0  0  0  0  0  0
    2.3350    2.1340   50.5420 C   0  0  0  0  0  0  0  0  0  0  0  0
    1.4230    3.0350   48.4840 C   0  0  0  0  0  0  0  0  0  0  0  0
    2.8480    8.5470   55.1420 C   0  0  0  0  0  0  0  0  0  0  0  0
    0.9310    1.7720   48.1540 C   0  0  0  0  0  0  0  0  0  0  0  0
    2.0950    3.2280   49.6940 C   0  0  0  0  0  0  0  0  0  0  0  0
    3.8010    8.4560   54.1210 C   0  0  0  0  0  0  0  0  0  0  0  0
    3.5350    8.8070   56.2880 C   0  0  0  0  0  0  0  0  0  0  0  0
    5.0410    8.4530   54.7020 C   0  0  0  0  0  0  0  0  0  0  0  0
    1.4180    8.4180   54.9610 C   0  0  0  0  0  0  0  0  0  0  0  0
    2.6950    5.0930   51.2780 C   0  0  0  0  0  0  0  0  0  0  0  0
    0.2040    1.5330   46.8520 C   0  0  0  0  0  0  0  0  0  0  0  0
    3.0260    9.4960   57.5000 C   0  0  0  0  0  0  0  0  0  0  0  0
    6.4170    8.4910   54.0700 C   0  0  0  0  0  0  0  0  0  0  0  0
   -0.4090    6.6480   52.3190 C   0  0  0  0  0  0  0  0  0  0  0  0
    5.8570    8.7010   57.1170 C   0  0  0  0  0  0  0  0  0  0  0  0
    2.3210    6.5220   51.5630 C   0  0  0  0  0  0  0  0  0  0  0  0
   -0.0310    7.9460   53.0610 C   0  0  0  0  0  0  0  0  0  0  0  0
    4.8530    8.6100   56.0550 N   0  0  0  0  0  0  0  0  0  0  0  0
    2.4410    4.5850   50.0180 N   0  0  0  0  0  0  0  0  0  0  0  0
    3.1950    7.6310   51.4390 N   0  0  0  0  0  0  0  0  0  0  0  0
    0.5230    8.6960   55.7390 O   0  0  0  0  0  0  0  0  0  0  0  0
    2.9850    4.3760   52.2090 O   0  0  0  0  0  0  0  0  0  0  0  0
    2.2200    9.7310   52.5490 O   0  0  0  0  0  0  0  0  0  0  0  0
    4.5740    9.7100   52.0690 O   0  0  0  0  0  0  0  0  0  0  0  0
    1.0780    7.7530   53.8850 O   0  0  0  0  0  0  0  0  0  0  0  0
    3.4200    8.9800   52.4670 S   0  0  0  0  0  0  0  0  0  0  0  0
  1  2  2  0
  1  3  1  0
  2  6  1  0
  3  7  2  0
  4  6  2  0
  4  7  1  0
  5  8  1  0
  5  9  2  0
  5 11  1  0
  6 13  1  0
  7 21  1  0
  8 10  2  0
  8 28  1  0
  9 14  1  0
  9 20  1  0
 10 15  1  0
 10 20  1  0
 11 23  2  0
 11 27  1  0
 12 18  1  0
 12 21  1  0
 12 24  2  0
 16 19  1  0
 17 20  1  0
 18 22  1  0
 19 27  1  0
 22 28  1  0
 25 28  2  0
 26 28  2  0
M  END
>  <washed_aromatic_smiles>  (27) 
CCOC(=O)c1c(n(c(c1S(=O)(=O)NCC(=O)Nc2cccc(c2)C)C)C)C

>  <name>  (27) 
neg75718

$$$$
neg172627
     RDKit          3D

 26 27  0  0  0  0  0  0  0  0999 V2000
    5.1930    9.4440   58.3590 C   0  0  0  0  0  0  0  0  0  0  0  0
    4.8420   10.7110   57.9060 C   0  0  0  0  0  0  0  0  0  0  0  0
    5.5190    8.4490   57.4450 C   0  0  0  0  0  0  0  0  0  0  0  0
    1.3570    3.3730   49.1440 C   0  0  0  0  0  0  0  0  0  0  0  0
    2.6470    2.7040   51.0530 C   0  0  0  0  0  0  0  0  0  0  0  0
    1.2390    4.6450   49.6780 C   0  0  0  0  0  0  0  0  0  0  0  0
    2.5420    3.9860   51.5780 C   0  0  0  0  0  0  0  0  0  0  0  0
    4.8240   10.9860   56.5410 C   0  0  0  0  0  0  0  0  0  0  0  0
    5.4990    8.7260   56.0820 C   0  0  0  0  0  0  0  0  0  0  0  0
    1.9120    2.3500   49.9130 C   0  0  0  0  0  0  0  0  0  0  0  0
    1.7440    4.9310   50.9440 C   0  0  0  0  0  0  0  0  0  0  0  0
    5.1590    9.9940   55.6150 C   0  0  0  0  0  0  0  0  0  0  0  0
    1.5940    0.9670   49.5670 C   0  0  0  0  0  0  0  0  0  0  0  0
    1.9020    8.0720   52.9990 C   0  0  0  0  0  0  0  0  0  0  0  0
    2.2700   -0.5620   52.8130 C   0  0  0  0  0  0  0  0  0  0  0  0
    1.2740    6.1730   51.6680 C   0  0  0  0  0  0  0  0  0  0  0  0
    2.9140    8.7610   53.8840 C   0  0  0  0  0  0  0  0  0  0  0  0
    1.2370    0.1350   51.9290 C   0  0  0  0  0  0  0  0  0  0  0  0
    4.1870    9.0790   53.2440 N   0  0  0  0  0  0  0  0  0  0  0  0
    1.2670    0.6250   48.4440 O   0  0  0  0  0  0  0  0  0  0  0  0
    0.7520    8.4990   52.8770 O   0  0  0  0  0  0  0  0  0  0  0  0
    4.4930   11.5650   53.6380 O   0  0  0  0  0  0  0  0  0  0  0  0
    6.4570   10.1800   53.3460 O   0  0  0  0  0  0  0  0  0  0  0  0
    1.5390   -0.0110   50.5090 O   0  0  0  0  0  0  0  0  0  0  0  0
    2.2760    6.9120   52.4070 O   0  0  0  0  0  0  0  0  0  0  0  0
    5.1300   10.3090   53.8430 S   0  0  0  0  0  0  0  0  0  0  0  0
  1  2  2  0
  1  3  1  0
  2  8  1  0
  3  9  2  0
  4  6  2  0
  4 10  1  0
  5  7  1  0
  5 10  2  0
  6 11  1  0
  7 11  2  0
  8 12  2  0
  9 12  1  0
 10 13  1  0
 11 16  1  0
 12 26  1  0
 13 20  2  0
 13 24  1  0
 14 17  1  0
 14 21  2  0
 14 25  1  0
 15 18  1  0
 16 25  1  0
 17 19  1  0
 18 24  1  0
 19 26  1  0
 22 26  2  0
 23 26  2  0
M  END
>  <washed_aromatic_smiles>  (28) 
CCOC(=O)c1ccc(cc1)COC(=O)CNS(=O)(=O)c2ccccc2

>  <name>  (28) 
neg172627

$$$$
neg225650
     RDKit          3D

 29 32  0  0  0  0  0  0  0  0999 V2000
    5.2450   12.4860   54.1010 C   0  0  0  0  0  0  0  0  0  0  0  0
    5.3290   12.3880   55.4930 C   0  0  0  0  0  0  0  0  0  0  0  0
    4.7570   11.4200   53.3430 C   0  0  0  0  0  0  0  0  0  0  0  0
    4.9440   11.2140   56.1370 C   0  0  0  0  0  0  0  0  0  0  0  0
    3.3490    6.8130   54.3450 C   0  0  0  0  0  0  0  0  0  0  0  0
    3.0110    6.3580   53.0810 C   0  0  0  0  0  0  0  0  0  0  0  0
    2.9600    1.9190   51.1020 C   0  0  0  0  0  0  0  0  0  0  0  0
    1.2820    1.1130   49.5810 C   0  0  0  0  0  0  0  0  0  0  0  0
    2.7120    3.2070   50.6830 C   0  0  0  0  0  0  0  0  0  0  0  0
    1.0960    2.4060   49.1060 C   0  0  0  0  0  0  0  0  0  0  0  0
    3.3530    8.5610   52.2200 C   0  0  0  0  0  0  0  0  0  0  0  0
    4.3240   10.2610   53.9840 C   0  0  0  0  0  0  0  0  0  0  0  0
    3.7370    9.0170   53.4830 C   0  0  0  0  0  0  0  0  0  0  0  0
    4.4620   10.1550   55.3720 C   0  0  0  0  0  0  0  0  0  0  0  0
    3.6570    8.1430   54.5580 C   0  0  0  0  0  0  0  0  0  0  0  0
    2.1810    0.8640   50.6290 C   0  0  0  0  0  0  0  0  0  0  0  0
    2.9720    7.2250   52.0060 C   0  0  0  0  0  0  0  0  0  0  0  0
    1.7660    3.4680   49.7100 C   0  0  0  0  0  0  0  0  0  0  0  0
    4.0500    8.8270   55.7720 C   0  0  0  0  0  0  0  0  0  0  0  0
    2.2970   -0.4750   51.1870 C   0  0  0  0  0  0  0  0  0  0  0  0
    2.7490    6.6290   50.6940 C   0  0  0  0  0  0  0  0  0  0  0  0
    2.7920   -0.4000   54.9380 C   0  0  0  0  0  0  0  0  0  0  0  0
    1.5010    4.9110   49.3770 C   0  0  0  0  0  0  0  0  0  0  0  0
    2.6340    0.2520   53.5820 C   0  0  0  0  0  0  0  0  0  0  0  0
    4.0520    8.3680   56.9020 O   0  0  0  0  0  0  0  0  0  0  0  0
    2.0940   -1.4540   50.5060 O   0  0  0  0  0  0  0  0  0  0  0  0
    3.4940    6.7850   49.7390 O   0  0  0  0  0  0  0  0  0  0  0  0
    1.6960    5.7750   50.5590 O   0  0  0  0  0  0  0  0  0  0  0  0
    2.5980   -0.7130   52.4960 O   0  0  0  0  0  0  0  0  0  0  0  0
  1  2  2  0
  1  3  1  0
  2  4  1  0
  3 12  2  0
  4 14  2  0
  5  6  1  0
  5 15  2  0
  6 17  2  0
  7  9  2  0
  7 16  1  0
  8 10  1  0
  8 16  2  0
  9 18  1  0
 10 18  2  0
 11 13  2  0
 11 17  1  0
 12 13  1  0
 12 14  1  0
 13 15  1  0
 14 19  1  0
 15 19  1  0
 16 20  1  0
 17 21  1  0
 18 23  1  0
 19 25  2  0
 20 26  2  0
 20 29  1  0
 21 27  2  0
 21 28  1  0
 22 24  1  0
 23 28  1  0
 24 29  1  0
M  END
>  <washed_aromatic_smiles>  (29) 
CCOC(=O)c1ccc(cc1)COC(=O)c2ccc3c(c2)-c4ccccc4C3=O

>  <name>  (29) 
neg225650

$$$$
neg270206
     RDKit          3D

 25 26  0  0  0  0  0  0  0  0999 V2000
    2.6660    4.0920   51.2900 C   0  0  0  0  0  0  0  0  0  0  0  0
    3.0860    6.0110   49.9060 C   0  0  0  0  0  0  0  0  0  0  0  0
    0.9250    0.5070   52.8260 C   0  0  0  0  0  0  0  0  0  0  0  0
    2.5380   -1.0510   52.0230 C   0  0  0  0  0  0  0  0  0  0  0  0
    2.3890    3.3300   50.1620 C   0  0  0  0  0  0  0  0  0  0  0  0
    2.7880    5.2690   48.7810 C   0  0  0  0  0  0  0  0  0  0  0  0
    0.3560    0.5870   51.5600 C   0  0  0  0  0  0  0  0  0  0  0  0
    1.9950   -0.9590   50.7490 C   0  0  0  0  0  0  0  0  0  0  0  0
    2.9480    5.4600   51.1770 C   0  0  0  0  0  0  0  0  0  0  0  0
    2.0210   -0.3020   53.0670 C   0  0  0  0  0  0  0  0  0  0  0  0
    2.3560    3.9480   48.9010 C   0  0  0  0  0  0  0  0  0  0  0  0
    0.9020   -0.1350   50.5010 C   0  0  0  0  0  0  0  0  0  0  0  0
    3.0680    6.3230   52.3320 C   0  0  0  0  0  0  0  0  0  0  0  0
    1.0270    2.2580   47.5170 C   0  0  0  0  0  0  0  0  0  0  0  0
    2.6260   -0.3650   54.4520 C   0  0  0  0  0  0  0  0  0  0  0  0
    0.9980    8.1950   54.0220 C   0  0  0  0  0  0  0  0  0  0  0  0
    2.3320    8.4620   53.3280 C   0  0  0  0  0  0  0  0  0  0  0  0
    1.8940    3.3300   47.7000 N   0  0  0  0  0  0  0  0  0  0  0  0
    0.4740    1.7360   48.6320 N   0  0  0  0  0  0  0  0  0  0  0  0
    3.6050    6.0060   53.3750 O   0  0  0  0  0  0  0  0  0  0  0  0
    0.8040    1.7970   46.4000 O   0  0  0  0  0  0  0  0  0  0  0  0
   -1.1000   -0.2310   48.7750 O   0  0  0  0  0  0  0  0  0  0  0  0
    1.1020   -0.6140   47.9230 O   0  0  0  0  0  0  0  0  0  0  0  0
    2.5320    7.5610   52.2210 O   0  0  0  0  0  0  0  0  0  0  0  0
    0.2770    0.0880   48.8370 S   0  0  0  0  0  0  0  0  0  0  0  0
  1  5  2  0
  1  9  1  0
  2  6  1  0
  2  9  2  0
  3  7  2  0
  3 10  1  0
  4  8  1  0
  4 10  2  0
  5 11  1  0
  6 11  2  0
  7 12  1  0
  8 12  2  0
  9 13  1  0
 10 15  1  0
 11 18  1  0
 12 25  1  0
 13 20  2  0
 13 24  1  0
 14 18  1  0
 14 19  1  0
 14 21  2  0
 16 17  1  0
 17 24  1  0
 19 25  1  0
 22 25  2  0
 23 25  2  0
M  END
>  <washed_aromatic_smiles>  (30) 
CCOC(=O)c1ccc(cc1)NC(=O)NS(=O)(=O)c2ccc(cc2)C

>  <name>  (30) 
neg270206

$$$$
neg290722
     RDKit          3D

 26 27  0  0  0  0  0  0  0  0999 V2000
    2.3590    1.9470   51.0900 C   0  0  0  0  0  0  0  0  0  0  0  0
    1.5390    3.4440   49.3940 C   0  0  0  0  0  0  0  0  0  0  0  0
    2.7920    3.0270   51.8370 C   0  0  0  0  0  0  0  0  0  0  0  0
    1.9770    4.5350   50.1400 C   0  0  0  0  0  0  0  0  0  0  0  0
    1.6900    2.1260   49.8690 C   0  0  0  0  0  0  0  0  0  0  0  0
    2.8630    7.6120   53.2830 C   0  0  0  0  0  0  0  0  0  0  0  0
    3.8140    8.1400   54.1950 C   0  0  0  0  0  0  0  0  0  0  0  0
    2.5890    4.3340   51.3850 C   0  0  0  0  0  0  0  0  0  0  0  0
    3.1200    8.7390   55.2180 C   0  0  0  0  0  0  0  0  0  0  0  0
    1.6350    8.0510   53.7140 C   0  0  0  0  0  0  0  0  0  0  0  0
    2.9760    6.7600   52.0960 C   0  0  0  0  0  0  0  0  0  0  0  0
    1.1400    0.9310   49.2160 C   0  0  0  0  0  0  0  0  0  0  0  0
    3.5640    9.3190   56.4620 C   0  0  0  0  0  0  0  0  0  0  0  0
    5.3180    8.3140   54.0810 C   0  0  0  0  0  0  0  0  0  0  0  0
    0.2850    7.9660   53.0660 C   0  0  0  0  0  0  0  0  0  0  0  0
    0.8810    0.8780   45.4970 C   0  0  0  0  0  0  0  0  0  0  0  0
    5.7310    7.8480   59.0940 C   0  0  0  0  0  0  0  0  0  0  0  0
    0.6410    1.6960   46.7680 C   0  0  0  0  0  0  0  0  0  0  0  0
    5.2130    9.0510   58.3080 C   0  0  0  0  0  0  0  0  0  0  0  0
    1.8000    8.7040   54.8780 N   0  0  0  0  0  0  0  0  0  0  0  0
    2.9830    5.3820   52.2820 N   0  0  0  0  0  0  0  0  0  0  0  0
    2.9860    7.1820   50.9520 O   0  0  0  0  0  0  0  0  0  0  0  0
    1.0280   -0.1320   49.8080 O   0  0  0  0  0  0  0  0  0  0  0  0
    3.1230   10.3470   56.9520 O   0  0  0  0  0  0  0  0  0  0  0  0
    0.7180    0.8580   47.9340 O   0  0  0  0  0  0  0  0  0  0  0  0
    4.5150    8.6260   57.1260 O   0  0  0  0  0  0  0  0  0  0  0  0
  1  3  2  0
  1  5  1  0
  2  4  1  0
  2  5  2  0
  3  8  1  0
  4  8  2  0
  5 12  1  0
  6  7  1  0
  6 10  2  0
  6 11  1  0
  7  9  2  0
  7 14  1  0
  8 21  1  0
  9 13  1  0
  9 20  1  0
 10 15  1  0
 10 20  1  0
 11 21  1  0
 11 22  2  0
 12 23  2  0
 12 25  1  0
 13 24  2  0
 13 26  1  0
 16 18  1  0
 17 19  1  0
 18 25  1  0
 19 26  1  0
M  END
>  <washed_aromatic_smiles>  (31) 
CCOC(=O)c1ccc(cc1)NC(=O)c2c(c([nH]c2C)C(=O)OCC)C

>  <name>  (31) 
neg290722

$$$$
neg175562
     RDKit          3D

 26 27  0  0  0  0  0  0  0  0999 V2000
    2.5020    5.0410   49.3210 C   0  0  0  0  0  0  0  0  0  0  0  0
    2.3060    3.1980   50.8610 C   0  0  0  0  0  0  0  0  0  0  0  0
    3.9120    9.5650   53.9110 C   0  0  0  0  0  0  0  0  0  0  0  0
    2.9170    5.8710   50.3480 C   0  0  0  0  0  0  0  0  0  0  0  0
    2.7400    4.0170   51.8860 C   0  0  0  0  0  0  0  0  0  0  0  0
    4.1820   10.3150   55.0520 C   0  0  0  0  0  0  0  0  0  0  0  0
    3.7630    7.5730   55.2570 C   0  0  0  0  0  0  0  0  0  0  0  0
    2.1530    3.6990   49.5570 C   0  0  0  0  0  0  0  0  0  0  0  0
    3.5910    8.2050   54.0270 C   0  0  0  0  0  0  0  0  0  0  0  0
    3.0080    5.3590   51.6410 C   0  0  0  0  0  0  0  0  0  0  0  0
    4.0840    9.7050   56.2980 C   0  0  0  0  0  0  0  0  0  0  0  0
    4.0400    8.3170   56.3900 C   0  0  0  0  0  0  0  0  0  0  0  0
    2.9910    7.4620   52.9350 C   0  0  0  0  0  0  0  0  0  0  0  0
    1.6560    2.9130   48.4310 C   0  0  0  0  0  0  0  0  0  0  0  0
    0.5700   -0.6390   48.8820 C   0  0  0  0  0  0  0  0  0  0  0  0
    5.6600    9.9680   58.9320 C   0  0  0  0  0  0  0  0  0  0  0  0
    5.5250   12.1840   57.6220 C   0  0  0  0  0  0  0  0  0  0  0  0
    5.0360    6.5290   57.8270 C   0  0  0  0  0  0  0  0  0  0  0  0
    1.0400    0.6660   49.4930 C   0  0  0  0  0  0  0  0  0  0  0  0
    4.7740   11.0400   58.3080 C   0  0  0  0  0  0  0  0  0  0  0  0
    3.4120    6.1620   52.7190 N   0  0  0  0  0  0  0  0  0  0  0  0
    2.0710    7.9100   52.2720 O   0  0  0  0  0  0  0  0  0  0  0  0
    1.6670    3.3470   47.3030 O   0  0  0  0  0  0  0  0  0  0  0  0
    4.2410    7.7160   57.6080 O   0  0  0  0  0  0  0  0  0  0  0  0
    3.8360   10.4620   57.4110 O   0  0  0  0  0  0  0  0  0  0  0  0
    1.1410    1.6710   48.4930 O   0  0  0  0  0  0  0  0  0  0  0  0
  1  4  2  0
  1  8  1  0
  2  5  1  0
  2  8  2  0
  3  6  2  0
  3  9  1  0
  4 10  1  0
  5 10  2  0
  6 11  1  0
  7  9  2  0
  7 12  1  0
  8 14  1  0
  9 13  1  0
 10 21  1  0
 11 12  2  0
 11 25  1  0
 12 24  1  0
 13 21  1  0
 13 22  2  0
 14 23  2  0
 14 26  1  0
 15 19  1  0
 16 20  1  0
 17 20  1  0
 18 24  1  0
 19 26  1  0
 20 25  1  0
M  END
>  <washed_aromatic_smiles>  (32) 
CCOC(=O)c1ccc(cc1)NC(=O)c2ccc(c(c2)OC)OC(C)C

>  <name>  (32) 
neg175562

$$$$
neg271484
     RDKit          3D

 29 31  0  0  0  0  0  0  0  0999 V2000
    1.4160    3.8800   47.9260 C   0  0  0  0  0  0  0  0  0  0  0  0
    2.0010    4.6380   48.9140 C   0  0  0  0  0  0  0  0  0  0  0  0
    3.2140    9.0270   53.4210 C   0  0  0  0  0  0  0  0  0  0  0  0
    1.2640    7.9930   54.3890 C   0  0  0  0  0  0  0  0  0  0  0  0
    3.0130    8.2930   52.2660 C   0  0  0  0  0  0  0  0  0  0  0  0
    1.1230    7.1820   53.2740 C   0  0  0  0  0  0  0  0  0  0  0  0
    1.0220    2.5710   48.1480 C   0  0  0  0  0  0  0  0  0  0  0  0
    1.7760    2.7910   50.4150 C   0  0  0  0  0  0  0  0  0  0  0  0
    2.3950    8.8160   54.5410 C   0  0  0  0  0  0  0  0  0  0  0  0
    2.0960    4.1370   50.2030 C   0  0  0  0  0  0  0  0  0  0  0  0
    2.0570    7.2820   52.2480 C   0  0  0  0  0  0  0  0  0  0  0  0
    1.2030    2.0070   49.4020 C   0  0  0  0  0  0  0  0  0  0  0  0
    2.4150    5.0330   51.3080 C   0  0  0  0  0  0  0  0  0  0  0  0
    2.7310    9.4070   55.8330 C   0  0  0  0  0  0  0  0  0  0  0  0
    0.5150    0.4500   52.3340 C   0  0  0  0  0  0  0  0  0  0  0  0
    2.3000   -0.9780   51.3770 C   0  0  0  0  0  0  0  0  0  0  0  0
    1.4360    0.6210   53.5320 C   0  0  0  0  0  0  0  0  0  0  0  0
    2.8860   -0.9800   52.8000 C   0  0  0  0  0  0  0  0  0  0  0  0
    5.1030   12.1350   56.7620 C   0  0  0  0  0  0  0  0  0  0  0  0
    4.2380   10.9200   57.0920 C   0  0  0  0  0  0  0  0  0  0  0  0
    1.2220   -0.0200   51.1640 N   0  0  0  0  0  0  0  0  0  0  0  0
    2.0410    6.3640   51.1870 N   0  0  0  0  0  0  0  0  0  0  0  0
    2.9360    4.6570   52.3450 O   0  0  0  0  0  0  0  0  0  0  0  0
    2.1160    9.1920   56.8660 O   0  0  0  0  0  0  0  0  0  0  0  0
   -0.8090    0.3750   49.7920 O   0  0  0  0  0  0  0  0  0  0  0  0
    1.1300   -0.5320   48.6930 O   0  0  0  0  0  0  0  0  0  0  0  0
    2.0010   -0.6220   53.8410 O   0  0  0  0  0  0  0  0  0  0  0  0
    3.8120   10.2270   55.8950 O   0  0  0  0  0  0  0  0  0  0  0  0
    0.6050    0.3370   49.6880 S   0  0  0  0  0  0  0  0  0  0  0  0
  1  2  2  0
  1  7  1  0
  2 10  1  0
  3  5  2  0
  3  9  1  0
  4  6  1  0
  4  9  2  0
  5 11  1  0
  6 11  2  0
  7 12  2  0
  8 10  2  0
  8 12  1  0
  9 14  1  0
 10 13  1  0
 11 22  1  0
 12 29  1  0
 13 22  1  0
 13 23  2  0
 14 24  2  0
 14 28  1  0
 15 17  1  0
 15 21  1  0
 16 18  1  0
 16 21  1  0
 17 27  1  0
 18 27  1  0
 19 20  1  0
 20 28  1  0
 21 29  1  0
 25 29  2  0
 26 29  2  0
M  END
>  <washed_aromatic_smiles>  (33) 
CCOC(=O)c1ccc(cc1)NC(=O)c2cccc(c2)S(=O)(=O)N3CCOCC3

>  <name>  (33) 
neg271484

$$$$
neg86487
     RDKit          3D

 26 28  0  0  0  0  0  0  0  0999 V2000
    4.5440   -0.7260   56.3730 C   0  0  0  0  0  0  0  0  0  0  0  0
    4.6570    0.4340   57.1250 C   0  0  0  0  0  0  0  0  0  0  0  0
    1.8150    4.2740   48.4990 C   0  0  0  0  0  0  0  0  0  0  0  0
    2.3790    3.9880   50.8040 C   0  0  0  0  0  0  0  0  0  0  0  0
    1.2610    2.9940   48.4580 C   0  0  0  0  0  0  0  0  0  0  0  0
    1.7630    2.7620   50.7730 C   0  0  0  0  0  0  0  0  0  0  0  0
    3.7430   -0.6910   55.2440 C   0  0  0  0  0  0  0  0  0  0  0  0
    3.9440    1.5620   56.7350 C   0  0  0  0  0  0  0  0  0  0  0  0
    2.4180    4.7710   49.6640 C   0  0  0  0  0  0  0  0  0  0  0  0
    1.2330    2.2120   49.6120 C   0  0  0  0  0  0  0  0  0  0  0  0
    3.1010    0.4910   54.8900 C   0  0  0  0  0  0  0  0  0  0  0  0
    3.1000    6.0540   49.6950 C   0  0  0  0  0  0  0  0  0  0  0  0
    3.2870    0.5610   52.4510 C   0  0  0  0  0  0  0  0  0  0  0  0
    1.3520   -0.3700   53.4950 C   0  0  0  0  0  0  0  0  0  0  0  0
    2.7320   -0.1690   51.2000 C   0  0  0  0  0  0  0  0  0  0  0  0
    0.5300    0.0810   52.2950 C   0  0  0  0  0  0  0  0  0  0  0  0
    0.9340    6.7190   52.1720 C   0  0  0  0  0  0  0  0  0  0  0  0
    2.4570    6.8770   52.1110 C   0  0  0  0  0  0  0  0  0  0  0  0
    3.1580    1.5830   55.6550 N   0  0  0  0  0  0  0  0  0  0  0  0
    2.4360    0.5680   53.6710 N   0  0  0  0  0  0  0  0  0  0  0  0
    1.2690   -0.1160   51.0300 N   0  0  0  0  0  0  0  0  0  0  0  0
    3.7520    6.4600   48.7520 O   0  0  0  0  0  0  0  0  0  0  0  0
   -0.8000    0.5250   49.8370 O   0  0  0  0  0  0  0  0  0  0  0  0
    1.0820   -0.1690   48.5070 O   0  0  0  0  0  0  0  0  0  0  0  0
    3.0240    6.8890   50.7660 O   0  0  0  0  0  0  0  0  0  0  0  0
    0.6040    0.5160   49.6580 S   0  0  0  0  0  0  0  0  0  0  0  0
  1  2  2  0
  1  7  1  0
  2  8  1  0
  3  5  2  0
  3  9  1  0
  4  6  1  0
  4  9  2  0
  5 10  1  0
  6 10  2  0
  7 11  2  0
  8 19  2  0
  9 12  1  0
 10 26  1  0
 11 19  1  0
 11 20  1  0
 12 22  2  0
 12 25  1  0
 13 15  1  0
 13 20  1  0
 14 16  1  0
 14 20  1  0
 15 21  1  0
 16 21  1  0
 17 18  1  0
 18 25  1  0
 21 26  1  0
 23 26  2  0
 24 26  2  0
M  END
>  <washed_aromatic_smiles>  (34) 
CCOC(=O)c1ccc(cc1)S(=O)(=O)N2CCN(CC2)c3ccccn3

>  <name>  (34) 
neg86487

$$$$
neg2016
     RDKit          3D

 25 26  0  0  0  0  0  0  0  0999 V2000
    4.0820    8.7590   56.7630 C   0  0  0  0  0  0  0  0  0  0  0  0
    2.7650    8.8950   56.3400 C   0  0  0  0  0  0  0  0  0  0  0  0
    5.0940    8.5890   55.8250 C   0  0  0  0  0  0  0  0  0  0  0  0
    2.4120    0.6200   50.9970 C   0  0  0  0  0  0  0  0  0  0  0  0
    2.8590    1.9330   52.9430 C   0  0  0  0  0  0  0  0  0  0  0  0
    2.4600    8.8510   54.9830 C   0  0  0  0  0  0  0  0  0  0  0  0
    4.7920    8.5680   54.4660 C   0  0  0  0  0  0  0  0  0  0  0  0
    2.3620    1.7810   50.2240 C   0  0  0  0  0  0  0  0  0  0  0  0
    2.8660    3.0780   52.1630 C   0  0  0  0  0  0  0  0  0  0  0  0
    2.6750    0.6750   52.3780 C   0  0  0  0  0  0  0  0  0  0  0  0
    3.4730    8.7080   54.0370 C   0  0  0  0  0  0  0  0  0  0  0  0
    2.5960    3.0280   50.8040 C   0  0  0  0  0  0  0  0  0  0  0  0
    2.7410   -0.5610   53.1670 C   0  0  0  0  0  0  0  0  0  0  0  0
    4.5760   -0.4900   56.5500 C   0  0  0  0  0  0  0  0  0  0  0  0
    3.1390    8.7980   52.5620 C   0  0  0  0  0  0  0  0  0  0  0  0
    1.8290    6.6090   52.5100 C   0  0  0  0  0  0  0  0  0  0  0  0
    0.8100    5.8870   51.6000 C   0  0  0  0  0  0  0  0  0  0  0  0
    3.6390    0.2120   55.5480 C   0  0  0  0  0  0  0  0  0  0  0  0
    2.6950    7.5670   51.8130 N   0  0  0  0  0  0  0  0  0  0  0  0
    1.1650    5.3130   50.2850 N   0  0  0  0  0  0  0  0  0  0  0  0
    2.4620   -1.6270   52.6620 O   0  0  0  0  0  0  0  0  0  0  0  0
    3.6860    5.3600   50.3120 O   0  0  0  0  0  0  0  0  0  0  0  0
    2.5650    4.2360   48.4850 O   0  0  0  0  0  0  0  0  0  0  0  0
    3.1460   -0.6640   54.4790 O   0  0  0  0  0  0  0  0  0  0  0  0
    2.5920    4.5690   49.8690 S   0  0  0  0  0  0  0  0  0  0  0  0
  1  2  2  0
  1  3  1  0
  2  6  1  0
  3  7  2  0
  4  8  2  0
  4 10  1  0
  5  9  1  0
  5 10  2  0
  6 11  2  0
  7 11  1  0
  8 12  1  0
  9 12  2  0
 10 13  1  0
 11 15  1  0
 12 25  1  0
 13 21  2  0
 13 24  1  0
 14 18  1  0
 15 19  1  0
 16 17  1  0
 16 19  1  0
 17 20  1  0
 18 24  1  0
 20 25  1  0
 22 25  2  0
 23 25  2  0
M  CHG  1  19   1
M  END
>  <washed_aromatic_smiles>  (35) 
CCOC(=O)c1ccc(cc1)S(=O)(=O)NCCNCc2ccccc2

>  <name>  (35) 
neg2016

$$$$
neg136790
     RDKit          3D

 25 26  0  0  0  0  0  0  0  0999 V2000
    1.5840   -0.0680   53.6730 C   0  0  0  0  0  0  0  0  0  0  0  0
    3.5280    1.0830   52.8790 C   0  0  0  0  0  0  0  0  0  0  0  0
    2.8050    6.1110   50.4970 C   0  0  0  0  0  0  0  0  0  0  0  0
    1.0110    0.0770   52.4160 C   0  0  0  0  0  0  0  0  0  0  0  0
    2.9960    1.1400   51.6120 C   0  0  0  0  0  0  0  0  0  0  0  0
    3.3990    5.5440   49.3820 C   0  0  0  0  0  0  0  0  0  0  0  0
    1.4630    4.1230   50.7400 C   0  0  0  0  0  0  0  0  0  0  0  0
    2.8380    0.4840   53.9400 C   0  0  0  0  0  0  0  0  0  0  0  0
    1.7980    5.4200   51.1620 C   0  0  0  0  0  0  0  0  0  0  0  0
    2.0390    3.5010   49.6070 C   0  0  0  0  0  0  0  0  0  0  0  0
    1.7200    0.6700   51.3750 C   0  0  0  0  0  0  0  0  0  0  0  0
    3.0250    4.2900   48.9360 C   0  0  0  0  0  0  0  0  0  0  0  0
    3.3830    0.4710   55.2940 C   0  0  0  0  0  0  0  0  0  0  0  0
    1.1050    6.1060   52.2510 C   0  0  0  0  0  0  0  0  0  0  0  0
    6.2800   -0.7770   56.8470 C   0  0  0  0  0  0  0  0  0  0  0  0
    4.7610   -0.7760   56.9880 C   0  0  0  0  0  0  0  0  0  0  0  0
    1.7300    2.2410   49.1820 N   0  0  0  0  0  0  0  0  0  0  0  0
    3.2620    1.4020   56.0720 O   0  0  0  0  0  0  0  0  0  0  0  0
   -0.1460    6.0240   52.3440 O   0  0  0  0  0  0  0  0  0  0  0  0
   -0.4130    1.1900   50.0670 O   0  0  0  0  0  0  0  0  0  0  0  0
    1.2120   -0.2160   48.9790 O   0  0  0  0  0  0  0  0  0  0  0  0
    1.7650    6.7970   53.0750 O   0  0  0  0  0  0  0  0  0  0  0  0
    4.0530   -0.6380   55.7070 O   0  0  0  0  0  0  0  0  0  0  0  0
    0.9580    0.9330   49.7940 S   0  0  2  0  0  0  0  0  0  0  0  0
    3.8510    3.6880   47.5720 Cl  0  0  0  0  0  0  0  0  0  0  0  0
  1  4  2  0
  1  8  1  0
  2  5  1  0
  2  8  2  0
  3  6  2  0
  3  9  1  0
  4 11  1  0
  5 11  2  0
  6 12  1  0
  7  9  2  0
  7 10  1  0
  8 13  1  0
  9 14  1  0
 10 12  2  0
 10 17  1  0
 11 24  1  0
 12 25  1  0
 13 18  2  0
 13 23  1  0
 14 19  1  0
 14 22  2  0
 15 16  1  0
 16 23  1  0
 17 24  2  0
 20 24  2  0
 24 21  1  6
M  CHG  2  19  -1  21  -1
M  END
>  <washed_aromatic_smiles>  (36) 
CCOC(=O)c1ccc(cc1)S(=O)(=O)Nc2cc(ccc2Cl)C(=O)O

>  <name>  (36) 
neg136790

$$$$
neg90181
     RDKit          3D

 26 28  0  0  0  0  0  0  0  0999 V2000
    1.9610    2.4460   50.9070 C   0  0  0  0  0  0  0  0  0  0  0  0
    1.3310    3.8900   49.0480 C   0  0  0  0  0  0  0  0  0  0  0  0
    4.8960   10.3260   57.7750 C   0  0  0  0  0  0  0  0  0  0  0  0
    4.9000   12.2920   56.3490 C   0  0  0  0  0  0  0  0  0  0  0  0
    5.4490   11.0760   58.8010 C   0  0  0  0  0  0  0  0  0  0  0  0
    5.4600   13.0380   57.3790 C   0  0  0  0  0  0  0  0  0  0  0  0
    1.7010    1.3260   50.1250 C   0  0  0  0  0  0  0  0  0  0  0  0
    1.0840    2.7680   48.2640 C   0  0  0  0  0  0  0  0  0  0  0  0
    1.7340    3.7290   50.3870 C   0  0  0  0  0  0  0  0  0  0  0  0
    4.6490   10.9250   56.5400 C   0  0  0  0  0  0  0  0  0  0  0  0
    5.7460   12.4230   58.5990 C   0  0  0  0  0  0  0  0  0  0  0  0
    1.2490    1.5060   48.8220 C   0  0  0  0  0  0  0  0  0  0  0  0
    4.2720   10.2210   54.1610 C   0  0  0  0  0  0  0  0  0  0  0  0
    0.6640    5.5650   51.6050 C   0  0  0  0  0  0  0  0  0  0  0  0
    2.8400    5.8070   50.6910 C   0  0  0  0  0  0  0  0  0  0  0  0
    0.8430    6.7050   52.6310 C   0  0  0  0  0  0  0  0  0  0  0  0
    3.0370    7.0130   51.6000 C   0  0  0  0  0  0  0  0  0  0  0  0
    6.9630   14.4140   59.5010 C   0  0  0  0  0  0  0  0  0  0  0  0
    3.8170    9.0700   53.3080 C   0  0  0  0  0  0  0  0  0  0  0  0
    2.3170    8.6870   53.3260 C   0  0  0  0  0  0  0  0  0  0  0  0
    1.9070    4.8430   51.2430 N   0  0  0  0  0  0  0  0  0  0  0  0
    1.8820    7.6960   52.2450 N   0  0  0  0  0  0  0  0  0  0  0  0
    4.1590   10.0600   55.5210 N   0  0  0  0  0  0  0  0  0  0  0  0
    4.7510   11.2240   53.6650 O   0  0  0  0  0  0  0  0  0  0  0  0
    6.3520   13.1080   59.6380 O   0  0  0  0  0  0  0  0  0  0  0  0
    0.9560    0.4220   48.0740 F   0  0  0  0  0  0  0  0  0  0  0  0
  1  7  2  0
  1  9  1  0
  2  8  1  0
  2  9  2  0
  3  5  2  0
  3 10  1  0
  4  6  1  0
  4 10  2  0
  5 11  1  0
  6 11  2  0
  7 12  1  0
  8 12  2  0
  9 21  1  0
 10 23  1  0
 11 25  1  0
 12 26  1  0
 13 19  1  0
 13 23  1  0
 13 24  2  0
 14 16  1  0
 14 21  1  0
 15 17  1  0
 15 21  1  0
 16 22  1  0
 17 22  1  0
 18 25  1  0
 19 20  1  0
 20 22  1  0
M  CHG  1  22   1
M  END
>  <washed_aromatic_smiles>  (37) 
COc1ccc(cc1)NC(=O)CCN2CCN(CC2)c3ccc(cc3)F

>  <name>  (37) 
neg90181

$$$$
neg321149
     RDKit          3D

 27 29  0  0  0  0  0  0  0  0999 V2000
    1.2870    2.2540   49.3470 C   0  0  0  0  0  0  0  0  0  0  0  0
    2.6000    2.7960   51.3240 C   0  0  0  0  0  0  0  0  0  0  0  0
    1.5030    0.9020   49.5850 C   0  0  0  0  0  0  0  0  0  0  0  0
    2.8470    1.4560   51.5370 C   0  0  0  0  0  0  0  0  0  0  0  0
    1.8000    3.1910   50.2470 C   0  0  0  0  0  0  0  0  0  0  0  0
    2.2570    0.5140   50.6940 C   0  0  0  0  0  0  0  0  0  0  0  0
    4.6190   11.0040   55.2910 C   0  0  0  0  0  0  0  0  0  0  0  0
    2.1040    5.5320   50.7760 C   0  0  0  0  0  0  0  0  0  0  0  0
    6.1970   12.7470   59.1150 C   0  0  0  0  0  0  0  0  0  0  0  0
    5.3960   11.4390   59.0810 C   0  0  0  0  0  0  0  0  0  0  0  0
    6.1260   13.5980   57.8430 C   0  0  0  0  0  0  0  0  0  0  0  0
    5.1910   10.7460   57.7410 C   0  0  0  0  0  0  0  0  0  0  0  0
    5.7840   12.8970   56.5160 C   0  0  0  0  0  0  0  0  0  0  0  0
    2.1690    8.3020   54.9150 C   0  0  0  0  0  0  0  0  0  0  0  0
    3.9650    8.5700   53.2620 C   0  0  0  0  0  0  0  0  0  0  0  0
    1.2810    7.6370   53.8460 C   0  0  0  0  0  0  0  0  0  0  0  0
    2.9410    8.0900   52.2360 C   0  0  0  0  0  0  0  0  0  0  0  0
    4.7980   11.7260   56.6300 C   0  0  0  0  0  0  0  0  0  0  0  0
    3.1780    9.2670   54.3210 C   0  0  0  0  0  0  0  0  0  0  0  0
    2.3090   -1.1840   52.3740 C   0  0  0  0  0  0  0  0  0  0  0  0
    1.3040    6.3870   51.7540 C   0  0  0  0  0  0  0  0  0  0  0  0
    2.1100    7.0290   52.8020 N   0  0  0  0  0  0  0  0  0  0  0  0
    1.4060    4.5450   50.1470 N   0  0  0  0  0  0  0  0  0  0  0  0
    3.9970    9.8240   55.3670 N   0  0  0  0  0  0  0  0  0  0  0  0
    4.9100   11.5510   54.2270 O   0  0  0  0  0  0  0  0  0  0  0  0
    3.3130    5.5790   50.6150 O   0  0  0  0  0  0  0  0  0  0  0  0
    2.3760   -0.8160   50.9810 O   0  0  0  0  0  0  0  0  0  0  0  0
  1  3  2  0
  1  5  1  0
  2  4  1  0
  2  5  2  0
  3  6  1  0
  4  6  2  0
  5 23  1  0
  6 27  1  0
  7 18  1  0
  7 24  1  0
  7 25  2  0
  8 21  1  0
  8 23  1  0
  8 26  2  0
  9 10  1  0
  9 11  1  0
 10 12  1  0
 11 13  1  0
 12 18  1  0
 13 18  1  0
 14 16  1  0
 14 19  1  0
 15 17  1  0
 15 19  1  0
 16 22  1  0
 17 22  1  0
 19 24  1  0
 20 27  1  0
 21 22  1  0
M  END
>  <washed_aromatic_smiles>  (38) 
COc1ccc(cc1)NC(=O)CN2CCC(CC2)NC(=O)C3CCCCC3

>  <name>  (38) 
neg321149

$$$$
neg104234
     RDKit          3D

 30 32  0  0  0  0  0  0  0  0999 V2000
    2.9830    1.8320   50.6900 C   0  0  0  0  0  0  0  0  0  0  0  0
    0.9690    1.3930   49.3950 C   0  0  0  0  0  0  0  0  0  0  0  0
    4.8950   10.2900   58.6780 C   0  0  0  0  0  0  0  0  0  0  0  0
    3.3210   11.0420   56.9870 C   0  0  0  0  0  0  0  0  0  0  0  0
    3.1550    0.5000   50.9120 C   0  0  0  0  0  0  0  0  0  0  0  0
    1.0940    0.0450   49.6830 C   0  0  0  0  0  0  0  0  0  0  0  0
    5.5330   11.5190   58.5970 C   0  0  0  0  0  0  0  0  0  0  0  0
    4.0610   12.1670   56.7730 C   0  0  0  0  0  0  0  0  0  0  0  0
    1.8780    2.2760   49.9780 C   0  0  0  0  0  0  0  0  0  0  0  0
    3.8510   10.0470   57.7910 C   0  0  0  0  0  0  0  0  0  0  0  0
    2.1480   -0.3570   50.4990 C   0  0  0  0  0  0  0  0  0  0  0  0
    5.1950   12.3650   57.5430 C   0  0  0  0  0  0  0  0  0  0  0  0
    1.8770    4.5000   50.9530 C   0  0  0  0  0  0  0  0  0  0  0  0
    3.5640    8.3500   56.2500 C   0  0  0  0  0  0  0  0  0  0  0  0
    0.5340    6.7960   52.6930 C   0  0  0  0  0  0  0  0  0  0  0  0
    2.8660    7.2020   51.9570 C   0  0  0  0  0  0  0  0  0  0  0  0
    0.8060    7.8170   53.8030 C   0  0  0  0  0  0  0  0  0  0  0  0
    3.0240    8.1790   53.1040 C   0  0  0  0  0  0  0  0  0  0  0  0
    2.2230   -1.4810   52.4510 C   0  0  0  0  0  0  0  0  0  0  0  0
    6.3710   12.9890   55.7350 C   0  0  0  0  0  0  0  0  0  0  0  0
    1.4250    5.8630   50.6150 C   0  0  0  0  0  0  0  0  0  0  0  0
    2.4140    8.6710   55.3200 C   0  0  0  0  0  0  0  0  0  0  0  0
    1.4800    6.9260   51.5980 N   0  0  0  0  0  0  0  0  0  0  0  0
    2.2030    7.7550   54.2350 N   0  0  0  0  0  0  0  0  0  0  0  0
    1.6400    3.6400   49.9160 N   0  0  0  0  0  0  0  0  0  0  0  0
    3.3500    8.7890   57.5200 N   0  0  0  0  0  0  0  0  0  0  0  0
    2.4560    4.2040   51.9800 O   0  0  0  0  0  0  0  0  0  0  0  0
    4.6820    8.0150   55.9050 O   0  0  0  0  0  0  0  0  0  0  0  0
    2.1640   -1.5650   51.0250 O   0  0  0  0  0  0  0  0  0  0  0  0
    6.0440   13.3030   57.1140 O   0  0  0  0  0  0  0  0  0  0  0  0
  1  5  2  0
  1  9  1  0
  2  6  1  0
  2  9  2  0
  3  7  2  0
  3 10  1  0
  4  8  1  0
  4 10  2  0
  5 11  1  0
  6 11  2  0
  7 12  1  0
  8 12  2  0
  9 25  1  0
 10 26  1  0
 11 29  1  0
 12 30  1  0
 13 21  1  0
 13 25  1  0
 13 27  2  0
 14 22  1  0
 14 26  1  0
 14 28  2  0
 15 17  1  0
 15 23  1  0
 16 18  1  0
 16 23  1  0
 17 24  1  0
 18 24  1  0
 19 29  1  0
 20 30  1  0
 21 23  1  0
 22 24  1  0
M  END
>  <washed_aromatic_smiles>  (39) 
COc1ccc(cc1)NC(=O)CN2CCN(CC2)CC(=O)Nc3ccc(cc3)OC

>  <name>  (39) 
neg104234

$$$$
neg30968
     RDKit          3D

 29 31  0  0  0  0  0  0  0  0999 V2000
    0.1540    0.8920   47.6580 C   0  0  0  0  0  0  0  0  0  0  0  0
    0.4630    2.1750   47.2340 C   0  0  0  0  0  0  0  0  0  0  0  0
    0.4890    0.4720   48.9330 C   0  0  0  0  0  0  0  0  0  0  0  0
    1.1190    3.0750   48.0790 C   0  0  0  0  0  0  0  0  0  0  0  0
    4.9800   11.2480   55.0200 C   0  0  0  0  0  0  0  0  0  0  0  0
    3.9390    9.8380   56.7050 C   0  0  0  0  0  0  0  0  0  0  0  0
    5.5060   12.0580   56.0240 C   0  0  0  0  0  0  0  0  0  0  0  0
    4.4750   10.6410   57.7050 C   0  0  0  0  0  0  0  0  0  0  0  0
    1.1310    1.3640   49.7890 C   0  0  0  0  0  0  0  0  0  0  0  0
    4.1870   10.1460   55.3600 C   0  0  0  0  0  0  0  0  0  0  0  0
    1.4240    2.6730   49.3770 C   0  0  0  0  0  0  0  0  0  0  0  0
    5.2440   11.7520   57.3640 C   0  0  0  0  0  0  0  0  0  0  0  0
    3.1210    8.1150   54.3520 C   0  0  0  0  0  0  0  0  0  0  0  0
    2.4960    4.7740   50.3540 C   0  0  0  0  0  0  0  0  0  0  0  0
    2.6650    0.4850   53.4820 C   0  0  0  0  0  0  0  0  0  0  0  0
    3.2650   -0.2710   52.3020 C   0  0  0  0  0  0  0  0  0  0  0  0
    1.1550    0.2900   53.4130 C   0  0  0  0  0  0  0  0  0  0  0  0
    2.5650   -0.0620   50.9740 C   0  0  0  0  0  0  0  0  0  0  0  0
    0.5280    0.6280   52.0400 C   0  0  0  0  0  0  0  0  0  0  0  0
    6.2170   13.8810   58.2730 C   0  0  0  0  0  0  0  0  0  0  0  0
    2.0590    7.6970   53.3560 C   0  0  0  0  0  0  0  0  0  0  0  0
    2.5760    5.4350   51.7230 C   0  0  0  0  0  0  0  0  0  0  0  0
    1.5470    0.9580   51.0540 N   0  0  0  0  0  0  0  0  0  0  0  0
    3.5600    9.4170   54.3000 N   0  0  0  0  0  0  0  0  0  0  0  0
    1.9150    3.5390   50.4010 N   0  0  0  0  0  0  0  0  0  0  0  0
    3.5640    7.3500   55.1840 O   0  0  0  0  0  0  0  0  0  0  0  0
    2.9280    5.2370   49.3140 O   0  0  0  0  0  0  0  0  0  0  0  0
    5.7220   12.5290   58.4070 O   0  0  0  0  0  0  0  0  0  0  0  0
    2.7100    7.2470   51.7150 S   0  0  0  0  0  0  0  0  0  0  0  0
  1  2  2  0
  1  3  1  0
  2  4  1  0
  3  9  2  0
  4 11  2  0
  5  7  2  0
  5 10  1  0
  6  8  1  0
  6 10  2  0
  7 12  1  0
  8 12  2  0
  9 11  1  0
  9 23  1  0
 10 24  1  0
 11 25  1  0
 12 28  1  0
 13 21  1  0
 13 24  1  0
 13 26  2  0
 14 22  1  0
 14 25  1  0
 14 27  2  0
 15 16  1  0
 15 17  1  0
 16 18  1  0
 17 19  1  0
 18 23  1  0
 19 23  1  0
 20 28  1  0
 21 29  1  0
 22 29  1  0
M  END
>  <washed_aromatic_smiles>  (40) 
COc1ccc(cc1)NC(=O)CSCC(=O)Nc2ccccc2N3CCCCC3

>  <name>  (40) 
neg30968

$$$$
neg231787
     RDKit          3D

 30 33  0  0  0  0  0  0  0  0999 V2000
    0.9790    0.1210   46.1620 C   0  0  0  0  0  0  0  0  0  0  0  0
    3.0490   -0.9360   53.8650 C   0  0  0  0  0  0  0  0  0  0  0  0
    1.0530   -0.3950   47.4480 C   0  0  0  0  0  0  0  0  0  0  0  0
    0.6890    1.4560   45.9660 C   0  0  0  0  0  0  0  0  0  0  0  0
    3.0480    0.0710   54.8380 C   0  0  0  0  0  0  0  0  0  0  0  0
    2.9300   -0.6380   52.5380 C   0  0  0  0  0  0  0  0  0  0  0  0
    0.9470    0.4510   48.5270 C   0  0  0  0  0  0  0  0  0  0  0  0
    0.7430    2.3110   47.0550 C   0  0  0  0  0  0  0  0  0  0  0  0
    2.9490    1.3840   54.4600 C   0  0  0  0  0  0  0  0  0  0  0  0
    5.6310    8.9860   53.9100 C   0  0  0  0  0  0  0  0  0  0  0  0
    3.5690   10.0590   53.2160 C   0  0  0  0  0  0  0  0  0  0  0  0
    6.2810   10.1980   53.7740 C   0  0  0  0  0  0  0  0  0  0  0  0
    4.2280   11.2700   53.1310 C   0  0  0  0  0  0  0  0  0  0  0  0
    2.6680    1.0510   50.8010 C   0  0  0  0  0  0  0  0  0  0  0  0
    2.8700    0.7010   52.1370 C   0  0  0  0  0  0  0  0  0  0  0  0
    1.0520    1.8140   48.2990 C   0  0  0  0  0  0  0  0  0  0  0  0
    2.3500    2.3410   50.4860 C   0  0  0  0  0  0  0  0  0  0  0  0
    2.9280    1.7250   53.0880 C   0  0  0  0  0  0  0  0  0  0  0  0
    4.2690    8.9350   53.6390 C   0  0  0  0  0  0  0  0  0  0  0  0
    5.5570   11.3440   53.4870 C   0  0  0  0  0  0  0  0  0  0  0  0
    2.6480    3.3400   51.4350 C   0  0  0  0  0  0  0  0  0  0  0  0
    3.0380    7.2360   52.5200 C   0  0  0  0  0  0  0  0  0  0  0  0
    5.4980   13.3270   54.7380 C   0  0  0  0  0  0  0  0  0  0  0  0
    1.7080    2.8120   49.2060 C   0  0  0  0  0  0  0  0  0  0  0  0
    2.6230    5.8250   52.5290 C   0  0  0  0  0  0  0  0  0  0  0  0
    2.9570    3.0210   52.6710 N   0  0  0  0  0  0  0  0  0  0  0  0
    3.6130    7.7080   53.6620 N   0  0  0  0  0  0  0  0  0  0  0  0
    2.9570    7.9080   51.5290 O   0  0  0  0  0  0  0  0  0  0  0  0
    6.0920   12.5790   53.6370 O   0  0  0  0  0  0  0  0  0  0  0  0
    2.6500    5.0060   50.9280 S   0  0  0  0  0  0  0  0  0  0  0  0
  1  3  2  0
  1  4  1  0
  2  5  2  0
  2  6  1  0
  3  7  1  0
  4  8  2  0
  5  9  1  0
  6 15  2  0
  7 16  2  0
  8 16  1  0
  9 18  2  0
 10 12  2  0
 10 19  1  0
 11 13  1  0
 11 19  2  0
 12 20  1  0
 13 20  2  0
 14 15  1  0
 14 17  2  0
 15 18  1  0
 16 24  1  0
 17 21  1  0
 17 24  1  0
 18 26  1  0
 19 27  1  0
 20 29  1  0
 21 26  2  0
 21 30  1  0
 22 25  1  0
 22 27  1  0
 22 28  2  0
 23 29  1  0
 25 30  1  0
M  END
>  <washed_aromatic_smiles>  (41) 
COc1ccc(cc1)NC(=O)CSc2c(cc3ccccc3n2)Cc4ccccc4

>  <name>  (41) 
neg231787

$$$$
neg181495
     RDKit          3D

 26 28  0  0  0  0  0  0  0  0999 V2000
    2.6690    6.2210   50.6210 C   0  0  0  0  0  0  0  0  0  0  0  0
    0.7310    5.6570   51.9700 C   0  0  0  0  0  0  0  0  0  0  0  0
    0.7920    0.4500   52.3190 C   0  0  0  0  0  0  0  0  0  0  0  0
    2.7690   -0.9160   52.2100 C   0  0  0  0  0  0  0  0  0  0  0  0
    2.8340    7.3700   51.3820 C   0  0  0  0  0  0  0  0  0  0  0  0
    0.9440    6.7670   52.7700 C   0  0  0  0  0  0  0  0  0  0  0  0
    1.1160    0.7200   53.6400 C   0  0  0  0  0  0  0  0  0  0  0  0
    3.0350   -0.6520   53.5520 C   0  0  0  0  0  0  0  0  0  0  0  0
    1.6270    5.3430   50.9380 C   0  0  0  0  0  0  0  0  0  0  0  0
    1.6550   -0.3510   51.5830 C   0  0  0  0  0  0  0  0  0  0  0  0
    2.0260    7.5920   52.4910 C   0  0  0  0  0  0  0  0  0  0  0  0
    2.2780    0.2700   54.2200 C   0  0  0  0  0  0  0  0  0  0  0  0
    0.8990    0.2590   49.2650 C   0  0  0  0  0  0  0  0  0  0  0  0
    2.4830    3.1310   50.7710 C   0  0  0  0  0  0  0  0  0  0  0  0
    1.4040    4.0520   48.8170 C   0  0  0  0  0  0  0  0  0  0  0  0
    2.6680    1.9180   49.8520 C   0  0  0  0  0  0  0  0  0  0  0  0
    0.9520    2.6300   48.3340 C   0  0  0  0  0  0  0  0  0  0  0  0
    3.9110    0.5990   56.1550 C   0  0  0  0  0  0  0  0  0  0  0  0
    1.4990    4.1080   50.2910 N   0  0  0  0  0  0  0  0  0  0  0  0
    1.4260    1.5410   49.2240 N   0  0  0  0  0  0  0  0  0  0  0  0
    1.3730   -0.6440   50.2150 N   0  0  0  0  0  0  0  0  0  0  0  0
    2.3300    8.6860   53.3820 N   0  0  0  0  0  0  0  0  0  0  0  0
    1.8430    8.7190   54.5010 O   0  0  0  0  0  0  0  0  0  0  0  0
    0.0480   -0.1090   48.4560 O   0  0  0  0  0  0  0  0  0  0  0  0
    3.1120    9.5650   53.0580 O   0  0  0  0  0  0  0  0  0  0  0  0
    2.6550    0.7720   55.4550 O   0  0  0  0  0  0  0  0  0  0  0  0
  1  5  2  0
  1  9  1  0
  2  6  1  0
  2  9  2  0
  3  7  2  0
  3 10  1  0
  4  8  1  0
  4 10  2  0
  5 11  1  0
  6 11  2  0
  7 12  1  0
  8 12  2  0
  9 19  1  0
 10 21  1  0
 11 22  1  0
 12 26  1  0
 13 20  1  0
 13 21  1  0
 13 24  2  0
 14 16  1  0
 14 19  1  0
 15 17  1  0
 15 19  1  0
 16 20  1  0
 17 20  1  0
 18 26  1  0
 22 23  1  0
 22 25  2  0
M  CHG  2  22   1  23  -1
M  END
>  <washed_aromatic_smiles>  (42) 
COc1ccc(cc1)NC(=O)N2CCN(CC2)c3ccc(cc3)[N+](=O)[O-]

>  <name>  (42) 
neg181495

$$$$
neg167641
     RDKit          3D

 27 28  0  0  0  0  0  0  0  0999 V2000
    4.4610   11.7900   52.9200 C   0  0  0  0  0  0  0  0  0  0  0  0
    5.8390   11.8530   52.8900 C   0  0  0  0  0  0  0  0  0  0  0  0
    3.8290   10.5650   53.1200 C   0  0  0  0  0  0  0  0  0  0  0  0
    2.2420    2.3950   50.7920 C   0  0  0  0  0  0  0  0  0  0  0  0
    1.7170    3.9260   48.9700 C   0  0  0  0  0  0  0  0  0  0  0  0
    1.7650    1.3360   50.0340 C   0  0  0  0  0  0  0  0  0  0  0  0
    1.2450    2.8650   48.2150 C   0  0  0  0  0  0  0  0  0  0  0  0
    6.5780   10.6960   53.0590 C   0  0  0  0  0  0  0  0  0  0  0  0
    2.1920    3.6880   50.2680 C   0  0  0  0  0  0  0  0  0  0  0  0
    4.5680    9.4640   53.4900 C   0  0  0  0  0  0  0  0  0  0  0  0
    1.2410    1.5860   48.7610 C   0  0  0  0  0  0  0  0  0  0  0  0
    5.9480    9.5370   53.4680 C   0  0  0  0  0  0  0  0  0  0  0  0
    3.3850    8.1640   55.1150 C   0  0  0  0  0  0  0  0  0  0  0  0
    0.9940    8.0790   53.0500 C   0  0  0  0  0  0  0  0  0  0  0  0
    2.9200    5.9970   50.6350 C   0  0  0  0  0  0  0  0  0  0  0  0
   -0.1710   -0.3490   48.7080 C   0  0  0  0  0  0  0  0  0  0  0  0
    1.9830    8.6890   55.3160 C   0  0  0  0  0  0  0  0  0  0  0  0
    0.7990    8.0640   54.5250 C   0  0  0  0  0  0  0  0  0  0  0  0
    3.8940    8.2840   53.8560 N   0  0  0  0  0  0  0  0  0  0  0  0
    2.5660    4.7540   51.1100 N   0  0  0  0  0  0  0  0  0  0  0  0
    1.6010    6.9730   52.5280 N   0  0  0  0  0  0  0  0  0  0  0  0
    2.4450    7.0640   51.3390 N   0  0  0  0  0  0  0  0  0  0  0  0
    4.1040    7.8200   56.0340 O   0  0  0  0  0  0  0  0  0  0  0  0
    0.7120    9.0670   52.4050 O   0  0  0  0  0  0  0  0  0  0  0  0
    3.6020    6.1470   49.6140 O   0  0  0  0  0  0  0  0  0  0  0  0
    0.6680    0.5880   48.0210 O   0  0  0  0  0  0  0  0  0  0  0  0
    6.8590    8.2040   53.9200 Cl  0  0  0  0  0  0  0  0  0  0  0  0
  1  2  2  0
  1  3  1  0
  2  8  1  0
  3 10  2  0
  4  6  2  0
  4  9  1  0
  5  7  1  0
  5  9  2  0
  6 11  1  0
  7 11  2  0
  8 12  2  0
  9 20  1  0
 10 12  1  0
 10 19  1  0
 11 26  1  0
 12 27  1  0
 13 17  1  0
 13 19  1  0
 13 23  2  0
 14 18  1  0
 14 21  1  0
 14 24  2  0
 15 20  1  0
 15 22  1  0
 15 25  2  0
 16 26  1  0
 17 18  1  0
 21 22  1  0
M  END
>  <washed_aromatic_smiles>  (43) 
COc1ccc(cc1)NC(=O)NNC(=O)CCC(=O)Nc2ccccc2Cl

>  <name>  (43) 
neg167641

$$$$
neg68271
     RDKit          3D

 32 35  0  0  0  0  0  0  0  0999 V2000
    1.4390    1.5950   51.6290 C   0  0  0  0  0  0  0  0  0  0  0  0
    1.7110    8.2490   52.5970 C   0  0  0  0  0  0  0  0  0  0  0  0
    3.1960    7.3220   54.2510 C   0  0  0  0  0  0  0  0  0  0  0  0
    2.3140    9.4830   52.7750 C   0  0  0  0  0  0  0  0  0  0  0  0
    3.8190    8.5470   54.4160 C   0  0  0  0  0  0  0  0  0  0  0  0
    1.0110    1.9820   50.3970 C   0  0  0  0  0  0  0  0  0  0  0  0
    2.4850    3.8660   50.4450 C   0  0  0  0  0  0  0  0  0  0  0  0
    2.7410    3.6340   51.7790 C   0  0  0  0  0  0  0  0  0  0  0  0
    2.5150    2.2740   52.2210 C   0  0  0  0  0  0  0  0  0  0  0  0
    2.2870    7.1440   53.1950 C   0  0  0  0  0  0  0  0  0  0  0  0
    3.4440    9.6010   53.5870 C   0  0  0  0  0  0  0  0  0  0  0  0
    1.6820    3.0040   49.7440 C   0  0  0  0  0  0  0  0  0  0  0  0
    3.0260    4.8860   52.4930 C   0  0  0  0  0  0  0  0  0  0  0  0
    3.2700    0.0590   52.9330 C   0  0  0  0  0  0  0  0  0  0  0  0
    2.6300    1.7440   54.5730 C   0  0  0  0  0  0  0  0  0  0  0  0
    0.7220    1.7290   46.0300 C   0  0  0  0  0  0  0  0  0  0  0  0
    1.0630    0.3590   47.9540 C   0  0  0  0  0  0  0  0  0  0  0  0
    3.2400   -0.9230   54.1330 C   0  0  0  0  0  0  0  0  0  0  0  0
    3.0970    0.7640   55.6120 C   0  0  0  0  0  0  0  0  0  0  0  0
    1.2390    0.6540   45.1200 C   0  0  0  0  0  0  0  0  0  0  0  0
    1.5140   -0.7600   46.9870 C   0  0  0  0  0  0  0  0  0  0  0  0
    5.5350   10.8900   54.0110 C   0  0  0  0  0  0  0  0  0  0  0  0
    3.1650    1.5320   53.2290 N   0  0  0  0  0  0  0  0  0  0  0  0
    0.9620    1.7480   47.4250 N   0  0  0  0  0  0  0  0  0  0  0  0
    2.0440    5.8780   52.5670 N   0  0  0  0  0  0  0  0  0  0  0  0
    4.0880    5.1930   52.9870 O   0  0  0  0  0  0  0  0  0  0  0  0
    1.0020    4.3180   47.6520 O   0  0  0  0  0  0  0  0  0  0  0  0
    3.1050    3.2270   47.6740 O   0  0  0  0  0  0  0  0  0  0  0  0
    2.5330   -0.4790   55.2440 O   0  0  0  0  0  0  0  0  0  0  0  0
    1.0720   -0.5630   45.6950 O   0  0  0  0  0  0  0  0  0  0  0  0
    4.1830   10.7710   53.5260 O   0  0  0  0  0  0  0  0  0  0  0  0
    1.7290    3.1650   48.0190 S   0  0  0  0  0  0  0  0  0  0  0  0
  1  6  2  0
  1  9  1  0
  2  4  2  0
  2 10  1  0
  3  5  1  0
  3 10  2  0
  4 11  1  0
  5 11  2  0
  6 12  1  0
  7  8  1  0
  7 12  2  0
  8  9  2  0
  8 13  1  0
  9 23  1  0
 10 25  1  0
 11 31  1  0
 12 32  1  0
 13 25  1  0
 13 26  2  0
 14 18  1  0
 14 23  1  0
 15 19  1  0
 15 23  1  0
 16 20  1  0
 16 24  1  0
 17 21  1  0
 17 24  1  0
 18 29  1  0
 19 29  1  0
 20 30  1  0
 21 30  1  0
 22 31  1  0
 24 32  1  0
 27 32  2  0
 28 32  2  0
M  END
>  <washed_aromatic_smiles>  (44) 
COc1ccc(cc1)NC(=O)c2cc(ccc2N3CCOCC3)S(=O)(=O)N4CCOCC4

>  <name>  (44) 
neg68271

$$$$
neg48577
     RDKit          3D

 25 27  0  0  0  0  0  0  0  0999 V2000
    0.9070    1.2470   48.4890 C   0  0  0  0  0  0  0  0  0  0  0  0
    3.6170    7.1790   53.3390 C   0  0  0  0  0  0  0  0  0  0  0  0
    1.5200    8.2840   52.9500 C   0  0  0  0  0  0  0  0  0  0  0  0
    3.2080    6.0940   52.5900 C   0  0  0  0  0  0  0  0  0  0  0  0
    1.0860    7.1870   52.2070 C   0  0  0  0  0  0  0  0  0  0  0  0
    4.5780   11.6820   55.9770 C   0  0  0  0  0  0  0  0  0  0  0  0
    4.4550    9.9020   57.6240 C   0  0  0  0  0  0  0  0  0  0  0  0
    5.2360   12.4900   56.8980 C   0  0  0  0  0  0  0  0  0  0  0  0
    5.1260   10.7060   58.5350 C   0  0  0  0  0  0  0  0  0  0  0  0
    1.3430    1.6950   49.7400 C   0  0  0  0  0  0  0  0  0  0  0  0
    0.9020    2.2370   47.5460 C   0  0  0  0  0  0  0  0  0  0  0  0
    2.8200    8.3070   53.4790 C   0  0  0  0  0  0  0  0  0  0  0  0
    4.1730   10.3880   56.3450 C   0  0  0  0  0  0  0  0  0  0  0  0
    1.9570    6.1150   51.9700 C   0  0  0  0  0  0  0  0  0  0  0  0
    5.4970   12.0030   58.1810 C   0  0  0  0  0  0  0  0  0  0  0  0
    1.6530    3.0370   49.7600 C   0  0  0  0  0  0  0  0  0  0  0  0
    3.4410    9.4600   54.1010 C   0  0  0  0  0  0  0  0  0  0  0  0
    2.0560    3.8110   50.9130 C   0  0  0  0  0  0  0  0  0  0  0  0
    6.6710   14.1010   58.9350 C   0  0  0  0  0  0  0  0  0  0  0  0
    3.4560    9.4970   55.4860 N   0  0  0  0  0  0  0  0  0  0  0  0
    1.5780    5.1180   51.0280 N   0  0  0  0  0  0  0  0  0  0  0  0
    4.0310   10.3170   53.4510 O   0  0  0  0  0  0  0  0  0  0  0  0
    2.7400    3.3250   51.8070 O   0  0  0  0  0  0  0  0  0  0  0  0
    6.1360   12.7690   59.1460 O   0  0  0  0  0  0  0  0  0  0  0  0
    1.4630    3.7390   48.1860 S   0  0  0  0  0  0  0  0  0  0  0  0
  1 10  1  0
  1 11  2  0
  2  4  2  0
  2 12  1  0
  3  5  1  0
  3 12  2  0
  4 14  1  0
  5 14  2  0
  6  8  2  0
  6 13  1  0
  7  9  1  0
  7 13  2  0
  8 15  1  0
  9 15  2  0
 10 16  2  0
 11 25  1  0
 12 17  1  0
 13 20  1  0
 14 21  1  0
 15 24  1  0
 16 18  1  0
 16 25  1  0
 17 20  1  0
 17 22  2  0
 18 21  1  0
 18 23  2  0
 19 24  1  0
M  END
>  <washed_aromatic_smiles>  (45) 
COc1ccc(cc1)NC(=O)c2ccc(cc2)NC(=O)c3cccs3

>  <name>  (45) 
neg48577

$$$$
neg105407
     RDKit          3D

 26 28  0  0  0  0  0  0  0  0999 V2000
    0.3560    0.7780   47.0850 C   0  0  0  0  0  0  0  0  0  0  0  0
    1.0010    1.9550   46.7980 C   0  0  0  0  0  0  0  0  0  0  0  0
    0.9690    7.2260   52.9250 C   0  0  0  0  0  0  0  0  0  0  0  0
    0.0940    0.4240   48.3900 C   0  0  0  0  0  0  0  0  0  0  0  0
    0.6310    6.3920   51.8710 C   0  0  0  0  0  0  0  0  0  0  0  0
    1.4330    2.8060   47.8030 C   0  0  0  0  0  0  0  0  0  0  0  0
    2.8390    0.6950   52.0330 C   0  0  0  0  0  0  0  0  0  0  0  0
    1.4360   -0.6860   53.4510 C   0  0  0  0  0  0  0  0  0  0  0  0
    3.5600    1.0720   53.1350 C   0  0  0  0  0  0  0  0  0  0  0  0
    2.2220   -0.3740   54.5410 C   0  0  0  0  0  0  0  0  0  0  0  0
    2.2720    7.2180   53.4100 C   0  0  0  0  0  0  0  0  0  0  0  0
    2.9010    5.6450   51.8500 C   0  0  0  0  0  0  0  0  0  0  0  0
    1.6130    5.5650   51.3210 C   0  0  0  0  0  0  0  0  0  0  0  0
    0.4980    1.2640   49.4290 C   0  0  0  0  0  0  0  0  0  0  0  0
    1.7490   -0.1350   52.2150 C   0  0  0  0  0  0  0  0  0  0  0  0
    1.1900    2.4600   49.1350 C   0  0  0  0  0  0  0  0  0  0  0  0
    3.2340    0.5650   54.4020 C   0  0  0  0  0  0  0  0  0  0  0  0
    1.3170    4.6950   50.1850 C   0  0  0  0  0  0  0  0  0  0  0  0
    0.2480    0.8380   50.7730 C   0  0  0  0  0  0  0  0  0  0  0  0
    4.5130    0.1490   56.5230 C   0  0  0  0  0  0  0  0  0  0  0  0
    3.2100    6.4370   52.8750 N   0  0  0  0  0  0  0  0  0  0  0  0
    0.9310   -0.2780   51.1200 N   0  0  0  0  0  0  0  0  0  0  0  0
    1.6330    3.3370   50.1850 N   0  0  0  0  0  0  0  0  0  0  0  0
    0.7160    5.1080   49.2170 O   0  0  0  0  0  0  0  0  0  0  0  0
   -0.4050    1.4340   51.6210 O   0  0  0  0  0  0  0  0  0  0  0  0
    3.9030    1.0070   55.5290 O   0  0  0  0  0  0  0  0  0  0  0  0
  1  2  2  0
  1  4  1  0
  2  6  1  0
  3  5  2  0
  3 11  1  0
  4 14  2  0
  5 13  1  0
  6 16  2  0
  7  9  2  0
  7 15  1  0
  8 10  1  0
  8 15  2  0
  9 17  1  0
 10 17  2  0
 11 21  2  0
 12 13  2  0
 12 21  1  0
 13 18  1  0
 14 16  1  0
 14 19  1  0
 15 22  1  0
 16 23  1  0
 17 26  1  0
 18 23  1  0
 18 24  2  0
 19 22  1  0
 19 25  2  0
 20 26  1  0
M  END
>  <washed_aromatic_smiles>  (46) 
COc1ccc(cc1)NC(=O)c2ccccc2NC(=O)c3cccnc3

>  <name>  (46) 
neg105407

$$$$
neg227665
     RDKit          3D

 27 30  0  0  0  0  0  0  0  0999 V2000
    3.6370   -0.6440   55.4150 C   0  0  0  0  0  0  0  0  0  0  0  0
    3.2180    0.6340   55.7450 C   0  0  0  0  0  0  0  0  0  0  0  0
    3.3490   -1.1430   54.1480 C   0  0  0  0  0  0  0  0  0  0  0  0
    2.3750    1.2930   54.8740 C   0  0  0  0  0  0  0  0  0  0  0  0
    2.6790    3.1650   51.3960 C   0  0  0  0  0  0  0  0  0  0  0  0
    2.3310    2.2970   49.1890 C   0  0  0  0  0  0  0  0  0  0  0  0
   -1.2710    0.1540   50.5820 C   0  0  0  0  0  0  0  0  0  0  0  0
   -0.4010    0.1660   48.3580 C   0  0  0  0  0  0  0  0  0  0  0  0
   -2.5270   -0.2020   50.1170 C   0  0  0  0  0  0  0  0  0  0  0  0
   -1.6850   -0.1390   47.9300 C   0  0  0  0  0  0  0  0  0  0  0  0
    2.9550    4.4160   50.8630 C   0  0  0  0  0  0  0  0  0  0  0  0
    2.6680    3.5290   48.6440 C   0  0  0  0  0  0  0  0  0  0  0  0
    2.8970   -0.2790   53.1660 C   0  0  0  0  0  0  0  0  0  0  0  0
    2.1410    0.7600   53.6000 C   0  0  0  0  0  0  0  0  0  0  0  0
    2.3360    2.0830   50.5740 C   0  0  0  0  0  0  0  0  0  0  0  0
   -0.1700    0.1820   49.7270 C   0  0  0  0  0  0  0  0  0  0  0  0
   -2.6500   -0.5830   48.8310 C   0  0  0  0  0  0  0  0  0  0  0  0
    3.0020    4.5850   49.4860 C   0  0  0  0  0  0  0  0  0  0  0  0
    2.9860   -0.1960   51.7150 C   0  0  0  0  0  0  0  0  0  0  0  0
    1.2440    1.0170   52.5230 C   0  0  0  0  0  0  0  0  0  0  0  0
    1.8940    0.7320   51.1860 C   0  0  0  0  0  0  0  0  0  0  0  0
   -4.3890   -2.4420   49.5020 C   0  0  0  0  0  0  0  0  0  0  0  0
    1.1340   -0.0470   50.1910 N   0  0  0  0  0  0  0  0  0  0  0  0
    3.8490   -0.6790   51.0230 O   0  0  0  0  0  0  0  0  0  0  0  0
    0.0990    1.2320   52.7060 O   0  0  0  0  0  0  0  0  0  0  0  0
   -3.6530   -1.5390   48.6310 O   0  0  0  0  0  0  0  0  0  0  0  0
    3.5570    6.0800   48.8450 Cl  0  0  0  0  0  0  0  0  0  0  0  0
  1  2  2  0
  1  3  1  0
  2  4  1  0
  3 13  2  0
  4 14  2  0
  5 11  2  0
  5 15  1  0
  6 12  1  0
  6 15  2  0
  7  9  2  0
  7 16  1  0
  8 10  1  0
  8 16  2  0
  9 17  1  0
 10 17  2  0
 11 18  1  0
 12 18  2  0
 13 14  1  0
 13 19  1  0
 14 20  1  0
 15 21  1  0
 16 23  1  0
 17 26  1  0
 18 27  1  0
 19 21  1  0
 19 24  2  0
 20 21  1  0
 20 25  2  0
 21 23  1  0
 22 26  1  0
M  END
>  <washed_aromatic_smiles>  (47) 
COc1ccc(cc1)NC2(C(=O)c3ccccc3C2=O)c4ccc(cc4)Cl

>  <name>  (47) 
neg227665

$$$$
neg134447
     RDKit          3D

 29 31  0  0  0  0  0  0  0  0999 V2000
    5.1540   12.9310   56.2130 C   0  0  0  0  0  0  0  0  0  0  0  0
    0.9430    9.0180   56.9020 C   0  0  0  0  0  0  0  0  0  0  0  0
    5.3830   11.5890   56.4670 C   0  0  0  0  0  0  0  0  0  0  0  0
    4.8740   13.3430   54.9190 C   0  0  0  0  0  0  0  0  0  0  0  0
    0.5670    8.6400   55.6080 C   0  0  0  0  0  0  0  0  0  0  0  0
    2.2940    9.0600   57.2260 C   0  0  0  0  0  0  0  0  0  0  0  0
    5.3510   10.6750   55.4200 C   0  0  0  0  0  0  0  0  0  0  0  0
    4.7910   12.4190   53.8790 C   0  0  0  0  0  0  0  0  0  0  0  0
    1.5400    8.3040   54.6830 C   0  0  0  0  0  0  0  0  0  0  0  0
    3.2480    8.6260   56.3440 C   0  0  0  0  0  0  0  0  0  0  0  0
    1.3230    2.2000   49.2390 C   0  0  0  0  0  0  0  0  0  0  0  0
    2.5740    2.9040   51.2000 C   0  0  0  0  0  0  0  0  0  0  0  0
    1.4680    0.8750   49.6280 C   0  0  0  0  0  0  0  0  0  0  0  0
    2.7370    1.5840   51.5760 C   0  0  0  0  0  0  0  0  0  0  0  0
    5.0250   11.0680   54.1260 C   0  0  0  0  0  0  0  0  0  0  0  0
    2.8850    8.2780   55.0600 C   0  0  0  0  0  0  0  0  0  0  0  0
    1.8540    3.2150   50.0420 C   0  0  0  0  0  0  0  0  0  0  0  0
    2.1650    0.5760   50.7980 C   0  0  0  0  0  0  0  0  0  0  0  0
    3.9940    8.9120   52.9710 C   0  0  0  0  0  0  0  0  0  0  0  0
    2.6220    6.5920   50.7510 C   0  0  0  0  0  0  0  0  0  0  0  0
    2.3090   -1.0690   52.5720 C   0  0  0  0  0  0  0  0  0  0  0  0
    5.0220   10.0530   52.9920 C   0  0  0  0  0  0  0  0  0  0  0  0
    3.9860    7.9340   54.1160 C   0  0  0  0  0  0  0  0  0  0  0  0
    1.5110    5.5630   50.7300 C   0  0  0  0  0  0  0  0  0  0  0  0
    3.3560    8.6370   51.9100 N   0  0  0  0  0  0  0  0  0  0  0  0
    1.6440    4.5470   49.6760 N   0  0  0  0  0  0  0  0  0  0  0  0
    2.6000    7.4580   51.8210 N   0  0  0  0  0  0  0  0  0  0  0  0
    3.4560    6.6970   49.8650 O   0  0  0  0  0  0  0  0  0  0  0  0
    2.2690   -0.7390   51.1730 O   0  0  0  0  0  0  0  0  0  0  0  0
  1  3  2  0
  1  4  1  0
  2  5  2  0
  2  6  1  0
  3  7  1  0
  4  8  2  0
  5  9  1  0
  6 10  2  0
  7 15  2  0
  8 15  1  0
  9 16  2  0
 10 16  1  0
 11 13  2  0
 11 17  1  0
 12 14  1  0
 12 17  2  0
 13 18  1  0
 14 18  2  0
 15 22  1  0
 16 23  1  0
 17 26  1  0
 18 29  1  0
 19 22  1  0
 19 23  1  0
 19 25  2  0
 20 24  1  0
 20 27  1  0
 20 28  2  0
 21 29  1  0
 24 26  1  0
 25 27  1  0
M  END
>  <washed_aromatic_smiles>  (48) 
COc1ccc(cc1)NCC(=O)NN=C(Cc2ccccc2)Cc3ccccc3

>  <name>  (48) 
neg134447

$$$$
neg201315
     RDKit          3D

 27 29  0  0  0  0  0  0  0  0999 V2000
    2.3610    3.6060   47.6260 C   0  0  0  0  0  0  0  0  0  0  0  0
    1.3200    3.9230   48.4720 C   0  0  0  0  0  0  0  0  0  0  0  0
    3.6280    4.1470   47.8230 C   0  0  0  0  0  0  0  0  0  0  0  0
    4.8360    8.2530   53.9970 C   0  0  0  0  0  0  0  0  0  0  0  0
    2.6640    8.4840   52.9480 C   0  0  0  0  0  0  0  0  0  0  0  0
    2.7550    2.3610   50.6350 C   0  0  0  0  0  0  0  0  0  0  0  0
    2.3610    1.4180   52.7950 C   0  0  0  0  0  0  0  0  0  0  0  0
    1.4950    4.8510   49.4860 C   0  0  0  0  0  0  0  0  0  0  0  0
    3.8350    5.0350   48.8720 C   0  0  0  0  0  0  0  0  0  0  0  0
    5.0480    9.6160   53.9060 C   0  0  0  0  0  0  0  0  0  0  0  0
    2.8840    9.8410   52.8580 C   0  0  0  0  0  0  0  0  0  0  0  0
    2.2290    1.2550   50.0190 C   0  0  0  0  0  0  0  0  0  0  0  0
    1.8480    0.2670   52.1850 C   0  0  0  0  0  0  0  0  0  0  0  0
    3.6660    7.6720   53.4680 C   0  0  0  0  0  0  0  0  0  0  0  0
    2.7180    2.5220   52.0000 C   0  0  0  0  0  0  0  0  0  0  0  0
    4.0810   10.4090   53.3030 C   0  0  0  0  0  0  0  0  0  0  0  0
    1.7320    0.2190   50.7910 C   0  0  0  0  0  0  0  0  0  0  0  0
    2.7820    5.3420   49.7080 C   0  0  0  0  0  0  0  0  0  0  0  0
    5.4820   12.4850   53.5010 C   0  0  0  0  0  0  0  0  0  0  0  0
    0.4800   -0.6110   48.8450 C   0  0  0  0  0  0  0  0  0  0  0  0
    3.5520    6.2690   53.4000 N   0  0  0  0  0  0  0  0  0  0  0  0
    3.0150    3.8100   52.5600 N   0  0  0  0  0  0  0  0  0  0  0  0
    1.2170    5.7250   52.3870 O   0  0  0  0  0  0  0  0  0  0  0  0
    4.2850   11.7740   53.1280 O   0  0  0  0  0  0  0  0  0  0  0  0
    1.1190   -0.8330   50.1440 O   0  0  0  0  0  0  0  0  0  0  0  0
    3.1520    5.9370   50.8600 O   0  0  0  0  0  0  0  0  0  0  0  0
    2.6490    5.4630   52.2340 P   0  0  0  0  0  0  0  0  0  0  0  0
  1  2  2  0
  1  3  1  0
  2  8  1  0
  3  9  2  0
  4 10  2  0
  4 14  1  0
  5 11  1  0
  5 14  2  0
  6 12  2  0
  6 15  1  0
  7 13  1  0
  7 15  2  0
  8 18  2  0
  9 18  1  0
 10 16  1  0
 11 16  2  0
 12 17  1  0
 13 17  2  0
 14 21  1  0
 15 22  1  0
 16 24  1  0
 17 25  1  0
 18 26  1  0
 19 24  1  0
 20 25  1  0
 21 27  1  0
 22 27  1  0
 23 27  2  0
 26 27  1  0
M  END
>  <washed_aromatic_smiles>  (49) 
COc1ccc(cc1)NP(=O)(Nc2ccc(cc2)OC)Oc3ccccc3

>  <name>  (49) 
neg201315

$$$$
neg197381
     RDKit          3D

 30 32  0  0  0  0  0  0  0  0999 V2000
    1.1390    7.1450   52.8700 C   0  0  0  0  0  0  0  0  0  0  0  0
    3.4770    6.7460   53.3580 C   0  0  0  0  0  0  0  0  0  0  0  0
    1.2260   -0.5680   53.5390 C   0  0  0  0  0  0  0  0  0  0  0  0
    2.6210    0.7030   52.0520 C   0  0  0  0  0  0  0  0  0  0  0  0
    1.9500    4.2340   48.4470 C   0  0  0  0  0  0  0  0  0  0  0  0
    2.1280   -0.3800   54.5550 C   0  0  0  0  0  0  0  0  0  0  0  0
    3.4620    0.9870   53.1030 C   0  0  0  0  0  0  0  0  0  0  0  0
    1.7390    3.1770   47.5890 C   0  0  0  0  0  0  0  0  0  0  0  0
    1.1170    8.1590   53.8240 C   0  0  0  0  0  0  0  0  0  0  0  0
    3.4700    7.7560   54.3040 C   0  0  0  0  0  0  0  0  0  0  0  0
    1.3250    2.7800   50.2690 C   0  0  0  0  0  0  0  0  0  0  0  0
    2.3130    6.4000   52.6670 C   0  0  0  0  0  0  0  0  0  0  0  0
    1.3710    0.0830   52.2950 C   0  0  0  0  0  0  0  0  0  0  0  0
    1.6980    4.0440   49.7910 C   0  0  0  0  0  0  0  0  0  0  0  0
    3.1830    0.4950   54.3830 C   0  0  0  0  0  0  0  0  0  0  0  0
    1.2170    1.9700   48.0330 C   0  0  0  0  0  0  0  0  0  0  0  0
    2.2800    8.4240   54.5450 C   0  0  0  0  0  0  0  0  0  0  0  0
    1.0520    1.7330   49.3880 C   0  0  0  0  0  0  0  0  0  0  0  0
    2.3480    5.1950   51.8570 C   0  0  0  0  0  0  0  0  0  0  0  0
    3.4900    1.8140   56.4130 C   0  0  0  0  0  0  0  0  0  0  0  0
    0.7490    1.0960   45.7170 C   0  0  0  0  0  0  0  0  0  0  0  0
    1.7780    5.1900   50.6140 N   0  0  0  0  0  0  0  0  0  0  0  0
    0.3430    0.0930   51.4530 N   0  0  0  0  0  0  0  0  0  0  0  0
    2.8860    4.1710   52.2540 O   0  0  0  0  0  0  0  0  0  0  0  0
    1.3600   -0.8730   49.4240 O   0  0  0  0  0  0  0  0  0  0  0  0
   -0.8930    0.0250   49.3110 O   0  0  0  0  0  0  0  0  0  0  0  0
    3.9500    0.8060   55.4980 O   0  0  0  0  0  0  0  0  0  0  0  0
    0.8520    0.9680   47.1430 O   0  0  0  0  0  0  0  0  0  0  0  0
    2.2720    9.3340   55.5440 F   0  0  0  0  0  0  0  0  0  0  0  0
    0.4260    0.1220   49.8570 S   0  0  2  0  0  0  0  0  0  0  0  0
  1  9  2  0
  1 12  1  0
  2 10  1  0
  2 12  2  0
  3  6  2  0
  3 13  1  0
  4  7  1  0
  4 13  2  0
  5  8  2  0
  5 14  1  0
  6 15  1  0
  7 15  2  0
  8 16  1  0
  9 17  1  0
 10 17  2  0
 11 14  2  0
 11 18  1  0
 12 19  1  0
 13 23  1  0
 14 22  1  0
 15 27  1  0
 16 18  2  0
 16 28  1  0
 17 29  1  0
 18 30  1  0
 19 22  1  0
 19 24  2  0
 20 27  1  0
 21 28  1  0
 23 30  2  0
 25 30  2  0
 30 26  1  6
M  CHG  1  26  -1
M  END
>  <washed_aromatic_smiles>  (50) 
COc1ccc(cc1)NS(=O)(=O)c2cc(ccc2OC)NC(=O)c3ccc(cc3)F

>  <name>  (50) 
neg197381

$$$$
neg199400
     RDKit          3D

 32 34  0  0  0  0  0  0  0  0999 V2000
    5.4830   13.2400   53.6260 C   0  0  0  0  0  0  0  0  0  0  0  0
    5.9550   11.9560   53.4200 C   0  0  0  0  0  0  0  0  0  0  0  0
    4.9720   13.5850   54.8680 C   0  0  0  0  0  0  0  0  0  0  0  0
    0.6250    5.9090   50.7110 C   0  0  0  0  0  0  0  0  0  0  0  0
    1.1040    6.7810   51.6530 C   0  0  0  0  0  0  0  0  0  0  0  0
   -0.5990    0.8230   51.0590 C   0  0  0  0  0  0  0  0  0  0  0  0
    0.8840    0.6790   49.1510 C   0  0  0  0  0  0  0  0  0  0  0  0
   -1.5650    0.2590   50.2880 C   0  0  0  0  0  0  0  0  0  0  0  0
   -0.1020    0.0740   48.4080 C   0  0  0  0  0  0  0  0  0  0  0  0
    5.8810   11.0250   54.4470 C   0  0  0  0  0  0  0  0  0  0  0  0
    4.8620   12.6480   55.8790 C   0  0  0  0  0  0  0  0  0  0  0  0
    1.2610    4.7080   50.4740 C   0  0  0  0  0  0  0  0  0  0  0  0
    2.8650    5.1920   52.1770 C   0  0  0  0  0  0  0  0  0  0  0  0
    0.6460    1.0930   50.4990 C   0  0  0  0  0  0  0  0  0  0  0  0
    2.2880    6.4700   52.2840 C   0  0  0  0  0  0  0  0  0  0  0  0
   -1.3290   -0.1620   49.0050 C   0  0  0  0  0  0  0  0  0  0  0  0
    5.2710   11.3380   55.6730 C   0  0  0  0  0  0  0  0  0  0  0  0
    2.3130    4.2790   51.2700 C   0  0  0  0  0  0  0  0  0  0  0  0
    3.3280    7.5540   54.1940 C   0  0  0  0  0  0  0  0  0  0  0  0
   -3.6280   -1.3390   49.0910 C   0  0  0  0  0  0  0  0  0  0  0  0
    3.9310    8.7960   54.7230 C   0  0  0  0  0  0  0  0  0  0  0  0
    3.6330    9.1230   56.1930 C   0  0  0  0  0  0  0  0  0  0  0  0
    2.8610    7.5640   52.9330 N   0  0  0  0  0  0  0  0  0  0  0  0
    1.4320    1.7850   51.2800 N   0  0  0  0  0  0  0  0  0  0  0  0
    3.3390    6.5460   54.8260 O   0  0  0  0  0  0  0  0  0  0  0  0
    6.0240    9.2860   57.1940 O   0  0  0  0  0  0  0  0  0  0  0  0
    4.3400   10.7830   58.0850 O   0  0  0  0  0  0  0  0  0  0  0  0
    3.7650    2.0810   51.7960 O   0  0  0  0  0  0  0  0  0  0  0  0
    2.9710    2.5330   49.5070 O   0  0  0  0  0  0  0  0  0  0  0  0
   -2.4150   -0.7640   48.4470 O   0  0  0  0  0  0  0  0  0  0  0  0
    4.8960   10.1170   56.9580 S   0  0  0  0  0  0  0  0  0  0  0  0
    2.7450    2.5720   50.9210 S   0  0  2  0  0  0  0  0  0  0  0  0
  1  2  2  0
  1  3  1  0
  2 10  1  0
  3 11  2  0
  4  5  2  0
  4 12  1  0
  5 15  1  0
  6  8  2  0
  6 14  1  0
  7  9  1  0
  7 14  2  0
  8 16  1  0
  9 16  2  0
 10 17  2  0
 11 17  1  0
 12 18  2  0
 13 15  2  0
 13 18  1  0
 14 24  1  0
 15 23  1  0
 16 30  1  0
 17 31  1  0
 18 32  1  0
 19 21  1  0
 19 23  1  0
 19 25  2  0
 20 30  1  0
 21 22  1  0
 22 31  1  0
 24 32  2  0
 26 31  2  0
 27 31  2  0
 28 32  2  0
 32 29  1  6
M  CHG  1  29  -1
M  END
>  <washed_aromatic_smiles>  (51) 
COc1ccc(cc1)NS(=O)(=O)c2cccc(c2)NC(=O)CCS(=O)(=O)c3ccccc3

>  <name>  (51) 
neg199400

$$$$
neg259445
     RDKit          3D

 29 32  0  0  0  0  0  0  0  0999 V2000
    1.0890    9.5250   52.6250 C   0  0  0  0  0  0  0  0  0  0  0  0
    2.4670    9.5700   52.8420 C   0  0  0  0  0  0  0  0  0  0  0  0
    0.4570    8.3240   52.4200 C   0  0  0  0  0  0  0  0  0  0  0  0
    1.0750    3.2300   47.8600 C   0  0  0  0  0  0  0  0  0  0  0  0
    3.2050    8.4090   52.7810 C   0  0  0  0  0  0  0  0  0  0  0  0
    1.1810    7.1760   52.3260 C   0  0  0  0  0  0  0  0  0  0  0  0
    1.8160    4.0320   48.7030 C   0  0  0  0  0  0  0  0  0  0  0  0
    2.8530   -1.2230   53.0220 C   0  0  0  0  0  0  0  0  0  0  0  0
    1.3500    0.6300   53.0640 C   0  0  0  0  0  0  0  0  0  0  0  0
    3.3310   -0.8740   54.2750 C   0  0  0  0  0  0  0  0  0  0  0  0
    1.8680    0.9760   54.3070 C   0  0  0  0  0  0  0  0  0  0  0  0
    0.7790    1.9190   48.1910 C   0  0  0  0  0  0  0  0  0  0  0  0
    2.0440    2.1700   50.2030 C   0  0  0  0  0  0  0  0  0  0  0  0
    2.5640    7.2340   52.4010 C   0  0  0  0  0  0  0  0  0  0  0  0
    2.2520    3.5100   49.9160 C   0  0  0  0  0  0  0  0  0  0  0  0
    1.9280   -0.4280   52.3180 C   0  0  0  0  0  0  0  0  0  0  0  0
    2.9000    0.2790   54.8880 C   0  0  0  0  0  0  0  0  0  0  0  0
    1.2330    1.4040   49.3960 C   0  0  0  0  0  0  0  0  0  0  0  0
    3.1670    6.0160   52.0180 C   0  0  0  0  0  0  0  0  0  0  0  0
    2.7530    4.3330   50.9680 C   0  0  0  0  0  0  0  0  0  0  0  0
    4.6300    0.3210   56.7610 C   0  0  0  0  0  0  0  0  0  0  0  0
    3.4040    5.0700   52.8220 N   0  0  0  0  0  0  0  0  0  0  0  0
    2.9810    3.9670   52.1810 N   0  0  0  0  0  0  0  0  0  0  0  0
    1.6880   -0.7110   51.0270 N   0  0  0  0  0  0  0  0  0  0  0  0
    0.5210   -1.0030   48.8440 O   0  0  0  0  0  0  0  0  0  0  0  0
   -0.6230    0.1840   50.6550 O   0  0  0  0  0  0  0  0  0  0  0  0
    2.9360    5.6010   50.8120 O   0  0  0  0  0  0  0  0  0  0  0  0
    3.4380    0.7800   56.0810 O   0  0  0  0  0  0  0  0  0  0  0  0
    0.6040   -0.1330   49.9800 S   0  0  2  0  0  0  0  0  0  0  0  0
  1  2  2  0
  1  3  1  0
  2  5  1  0
  3  6  2  0
  4  7  2  0
  4 12  1  0
  5 14  2  0
  6 14  1  0
  7 15  1  0
  8 10  2  0
  8 16  1  0
  9 11  1  0
  9 16  2  0
 10 17  1  0
 11 17  2  0
 12 18  2  0
 13 15  2  0
 13 18  1  0
 14 19  1  0
 15 20  1  0
 16 24  1  0
 17 28  1  0
 18 29  1  0
 19 22  2  0
 19 27  1  0
 20 23  2  0
 20 27  1  0
 21 28  1  0
 22 23  1  0
 24 29  2  0
 25 29  2  0
 29 26  1  1
M  CHG  1  26  -1
M  END
>  <washed_aromatic_smiles>  (52) 
COc1ccc(cc1)NS(=O)(=O)c2cccc(c2)c3nnc(o3)c4ccccc4

>  <name>  (52) 
neg259445

$$$$
neg180390
     RDKit          3D

 25 27  0  0  0  0  0  0  0  0999 V2000
    2.8420    5.2650   49.1590 C   0  0  0  0  0  0  0  0  0  0  0  0
    1.3310    4.5570   50.9050 C   0  0  0  0  0  0  0  0  0  0  0  0
    1.9350    1.3270   52.9610 C   0  0  0  0  0  0  0  0  0  0  0  0
    1.1820   -0.7410   53.8690 C   0  0  0  0  0  0  0  0  0  0  0  0
    3.1990    6.3490   49.9490 C   0  0  0  0  0  0  0  0  0  0  0  0
    1.6660    5.6520   51.6800 C   0  0  0  0  0  0  0  0  0  0  0  0
    2.6850    1.5520   54.0830 C   0  0  0  0  0  0  0  0  0  0  0  0
    2.1390   -0.6210   54.8750 C   0  0  0  0  0  0  0  0  0  0  0  0
    1.8800    4.3820   49.6350 C   0  0  0  0  0  0  0  0  0  0  0  0
    1.1000    0.2250   52.8900 C   0  0  0  0  0  0  0  0  0  0  0  0
    2.6010    6.5550   51.1940 C   0  0  0  0  0  0  0  0  0  0  0  0
    2.8710    0.5500   55.0080 C   0  0  0  0  0  0  0  0  0  0  0  0
    1.6640    2.0520   49.4410 C   0  0  0  0  0  0  0  0  0  0  0  0
    0.9740    0.2810   50.5810 C   0  0  0  0  0  0  0  0  0  0  0  0
    3.1430    0.6020   50.3540 C   0  0  0  0  0  0  0  0  0  0  0  0
    2.1770    8.1910   53.0450 C   0  0  0  0  0  0  0  0  0  0  0  0
    4.6740   -0.2000   56.5770 C   0  0  0  0  0  0  0  0  0  0  0  0
    0.6220    1.3340   49.8510 N   0  0  0  0  0  0  0  0  0  0  0  0
    2.9190    1.7500   49.7300 N   0  0  0  0  0  0  0  0  0  0  0  0
    2.1860   -0.2660   50.6130 N   0  0  0  0  0  0  0  0  0  0  0  0
    1.4810    3.2770   48.8500 N   0  0  0  0  0  0  0  0  0  0  0  0
    0.2750    0.0680   51.7400 N   0  0  0  0  0  0  0  0  0  0  0  0
    2.9290    7.6860   51.9200 O   0  0  0  0  0  0  0  0  0  0  0  0
    3.7420    0.7840   56.0580 O   0  0  0  0  0  0  0  0  0  0  0  0
    4.7400    0.2040   50.8510 Cl  0  0  0  0  0  0  0  0  0  0  0  0
  1  5  2  0
  1  9  1  0
  2  6  1  0
  2  9  2  0
  3  7  2  0
  3 10  1  0
  4  8  1  0
  4 10  2  0
  5 11  1  0
  6 11  2  0
  7 12  1  0
  8 12  2  0
  9 21  1  0
 10 22  1  0
 11 23  1  0
 12 24  1  0
 13 18  2  0
 13 19  1  0
 13 21  1  0
 14 18  1  0
 14 20  2  0
 14 22  1  0
 15 19  2  0
 15 20  1  0
 15 25  1  0
 16 23  1  0
 17 24  1  0
M  END
>  <washed_aromatic_smiles>  (53) 
COc1ccc(cc1)Nc2nc(nc(n2)Cl)Nc3ccc(cc3)OC

>  <name>  (53) 
neg180390

$$$$
neg105175
     RDKit          3D

 26 28  0  0  0  0  0  0  0  0999 V2000
    4.5770    9.8090   57.4380 C   0  0  0  0  0  0  0  0  0  0  0  0
    4.7740   11.8170   56.0840 C   0  0  0  0  0  0  0  0  0  0  0  0
    1.7800    4.9990   51.2770 C   0  0  0  0  0  0  0  0  0  0  0  0
    3.3100    5.8460   49.5970 C   0  0  0  0  0  0  0  0  0  0  0  0
    5.1240   10.4980   58.5160 C   0  0  0  0  0  0  0  0  0  0  0  0
    5.3150   12.5030   57.1600 C   0  0  0  0  0  0  0  0  0  0  0  0
    1.6840    3.8010   50.5840 C   0  0  0  0  0  0  0  0  0  0  0  0
    3.1870    4.6580   48.8870 C   0  0  0  0  0  0  0  0  0  0  0  0
    4.4040   10.4750   56.2200 C   0  0  0  0  0  0  0  0  0  0  0  0
    2.6090    6.0120   50.7950 C   0  0  0  0  0  0  0  0  0  0  0  0
    5.4870   11.8410   58.3770 C   0  0  0  0  0  0  0  0  0  0  0  0
    2.3680    3.6440   49.3790 C   0  0  0  0  0  0  0  0  0  0  0  0
    3.5650    8.5990   54.6560 C   0  0  0  0  0  0  0  0  0  0  0  0
    3.0570    7.3390   52.8540 C   0  0  0  0  0  0  0  0  0  0  0  0
    3.5130    6.3330   54.8560 C   0  0  0  0  0  0  0  0  0  0  0  0
    6.6870   13.7870   59.4250 C   0  0  0  0  0  0  0  0  0  0  0  0
    1.2080    1.5020   48.8280 C   0  0  0  0  0  0  0  0  0  0  0  0
    3.2000    8.5480   53.3740 N   0  0  0  0  0  0  0  0  0  0  0  0
    3.6930    7.5320   55.4560 N   0  0  0  0  0  0  0  0  0  0  0  0
    3.2590    6.2380   53.5410 N   0  0  0  0  0  0  0  0  0  0  0  0
    4.5500    4.7820   57.0510 N   0  0  0  0  0  0  0  0  0  0  0  0
    3.8500    9.8900   55.0600 N   0  0  0  0  0  0  0  0  0  0  0  0
    2.7240    7.2310   51.5120 N   0  0  0  0  0  0  0  0  0  0  0  0
    3.8870    4.9160   55.6180 N   0  0  0  0  0  0  0  0  0  0  0  0
    6.0410   12.4870   59.4730 O   0  0  0  0  0  0  0  0  0  0  0  0
    2.2440    2.4920   48.6330 O   0  0  0  0  0  0  0  0  0  0  0  0
  1  5  2  0
  1  9  1  0
  2  6  1  0
  2  9  2  0
  3  7  2  0
  3 10  1  0
  4  8  1  0
  4 10  2  0
  5 11  1  0
  6 11  2  0
  7 12  1  0
  8 12  2  0
  9 22  1  0
 10 23  1  0
 11 25  1  0
 12 26  1  0
 13 18  2  0
 13 19  1  0
 13 22  1  0
 14 18  1  0
 14 20  2  0
 14 23  1  0
 15 19  2  0
 15 20  1  0
 15 24  1  0
 16 25  1  0
 17 26  1  0
 21 24  1  0
M  END
>  <washed_aromatic_smiles>  (54) 
COc1ccc(cc1)Nc2nc(nc(n2)NN)Nc3ccc(cc3)OC

>  <name>  (54) 
neg105175

$$$$
neg182246
     RDKit          3D

 31 33  0  0  0  0  0  0  0  0999 V2000
    2.7810   -0.6920   54.0490 C   0  0  0  0  0  0  0  0  0  0  0  0
    3.0200    1.5550   53.1860 C   0  0  0  0  0  0  0  0  0  0  0  0
    3.5140    8.7980   55.7540 C   0  0  0  0  0  0  0  0  0  0  0  0
    4.7350   10.2100   54.2000 C   0  0  0  0  0  0  0  0  0  0  0  0
    2.4970   -1.1490   52.7740 C   0  0  0  0  0  0  0  0  0  0  0  0
    2.8370    1.0830   51.8980 C   0  0  0  0  0  0  0  0  0  0  0  0
    3.0130    8.0610   54.6850 C   0  0  0  0  0  0  0  0  0  0  0  0
    4.2250    9.4750   53.1360 C   0  0  0  0  0  0  0  0  0  0  0  0
    3.0730    0.6450   54.2430 C   0  0  0  0  0  0  0  0  0  0  0  0
    4.3810    9.8690   55.5050 C   0  0  0  0  0  0  0  0  0  0  0  0
    2.5550   -0.2670   51.7080 C   0  0  0  0  0  0  0  0  0  0  0  0
    3.3750    8.3970   53.3820 C   0  0  0  0  0  0  0  0  0  0  0  0
    1.2120    2.8880   48.8810 C   0  0  0  0  0  0  0  0  0  0  0  0
    1.6550    4.1010   49.3930 C   0  0  0  0  0  0  0  0  0  0  0  0
    0.8140    0.4650   49.0060 C   0  0  0  0  0  0  0  0  0  0  0  0
    2.8180    5.5270   51.0280 C   0  0  0  0  0  0  0  0  0  0  0  0
    2.9190    1.9960   56.2660 C   0  0  0  0  0  0  0  0  0  0  0  0
    4.6160   10.4590   57.9250 C   0  0  0  0  0  0  0  0  0  0  0  0
    0.9620   -0.6510   49.9760 C   0  0  0  0  0  0  0  0  0  0  0  0
    2.7090    6.2140   52.3740 C   0  0  0  0  0  0  0  0  0  0  0  0
    1.0290    2.9780   47.6300 N   0  0  0  0  0  0  0  0  0  0  0  0
    1.7590    4.9290   48.4410 N   0  0  0  0  0  0  0  0  0  0  0  0
    0.9810    1.6950   49.5760 N   0  0  0  0  0  0  0  0  0  0  0  0
    1.9230    4.5150   50.7330 N   0  0  0  0  0  0  0  0  0  0  0  0
    0.6360    0.2790   47.8150 O   0  0  0  0  0  0  0  0  0  0  0  0
    3.6940    5.8070   50.2280 O   0  0  0  0  0  0  0  0  0  0  0  0
    1.3550    4.2330   47.4010 O   0  0  0  0  0  0  0  0  0  0  0  0
    3.5030    0.9750   55.4920 O   0  0  0  0  0  0  0  0  0  0  0  0
    4.9200   10.6320   56.5250 O   0  0  0  0  0  0  0  0  0  0  0  0
    2.3040   -0.7650   50.4720 O   0  0  0  0  0  0  0  0  0  0  0  0
    2.9090    7.6590   52.3070 O   0  0  0  0  0  0  0  0  0  0  0  0
  1  5  2  0
  1  9  1  0
  2  6  1  0
  2  9  2  0
  3  7  2  0
  3 10  1  0
  4  8  1  0
  4 10  2  0
  5 11  1  0
  6 11  2  0
  7 12  1  0
  8 12  2  0
  9 28  1  0
 10 29  1  0
 11 30  1  0
 12 31  1  0
 13 14  1  0
 13 21  2  0
 13 23  1  0
 14 22  2  0
 14 24  1  0
 15 19  1  0
 15 23  1  0
 15 25  2  0
 16 20  1  0
 16 24  1  0
 16 26  2  0
 17 28  1  0
 18 29  1  0
 19 30  1  0
 20 31  1  0
 21 27  1  0
 22 27  1  0
M  END
>  <washed_aromatic_smiles>  (55) 
COc1ccc(cc1)OCC(=O)Nc2c(non2)NC(=O)COc3ccc(cc3)OC

>  <name>  (55) 
neg182246

$$$$
neg107216
     RDKit          3D

 35 37  0  0  0  0  0  0  0  0999 V2000
    5.6910    8.8540   54.9370 C   0  0  0  0  0  0  0  0  0  0  0  0
    3.2910    9.1960   55.0530 C   0  0  0  0  0  0  0  0  0  0  0  0
    2.7380   -1.2080   52.8880 C   0  0  0  0  0  0  0  0  0  0  0  0
    1.3580    0.7370   53.0850 C   0  0  0  0  0  0  0  0  0  0  0  0
    5.7150    8.5750   56.2940 C   0  0  0  0  0  0  0  0  0  0  0  0
    3.3170    8.9230   56.4170 C   0  0  0  0  0  0  0  0  0  0  0  0
    3.2640   -0.9560   54.1490 C   0  0  0  0  0  0  0  0  0  0  0  0
    1.9450    1.0120   54.3240 C   0  0  0  0  0  0  0  0  0  0  0  0
    6.6180    4.4390   60.9040 C   0  0  0  0  0  0  0  0  0  0  0  0
    6.1810    2.1490   60.2650 C   0  0  0  0  0  0  0  0  0  0  0  0
    5.7840    3.9410   58.6810 C   0  0  0  0  0  0  0  0  0  0  0  0
    6.6130    3.0730   61.2220 C   0  0  0  0  0  0  0  0  0  0  0  0
    6.1830    4.8630   59.6410 C   0  0  0  0  0  0  0  0  0  0  0  0
    5.7900    2.5900   58.9980 C   0  0  0  0  0  0  0  0  0  0  0  0
    4.4870    9.2170   54.3370 C   0  0  0  0  0  0  0  0  0  0  0  0
    1.8280   -0.3280   52.3310 C   0  0  0  0  0  0  0  0  0  0  0  0
    4.5370    8.6440   57.0340 C   0  0  0  0  0  0  0  0  0  0  0  0
    2.9280    0.1910   54.8280 C   0  0  0  0  0  0  0  0  0  0  0  0
    7.0730    2.6080   62.5270 C   0  0  0  0  0  0  0  0  0  0  0  0
    6.0710    7.3510   59.9960 C   0  0  0  0  0  0  0  0  0  0  0  0
    4.8730    0.4620   58.0580 C   0  0  0  0  0  0  0  0  0  0  0  0
    5.4540   10.5940   52.5590 C   0  0  0  0  0  0  0  0  0  0  0  0
    0.5320    0.3220   50.2870 C   0  0  0  0  0  0  0  0  0  0  0  0
    5.7110    8.6140   59.2540 C   0  0  0  0  0  0  0  0  0  0  0  0
    4.5810   -0.1900   56.7340 C   0  0  0  0  0  0  0  0  0  0  0  0
    6.0940    6.2160   59.2290 N   0  0  0  0  0  0  0  0  0  0  0  0
    5.4200    1.7130   57.9560 N   0  0  0  0  0  0  0  0  0  0  0  0
    6.4560    1.6640   63.0930 O   0  0  0  0  0  0  0  0  0  0  0  0
    6.2980    7.3400   61.1880 O   0  0  0  0  0  0  0  0  0  0  0  0
    4.5870   -0.0430   59.1270 O   0  0  0  0  0  0  0  0  0  0  0  0
    8.0900    3.1420   63.0460 O   0  0  0  0  0  0  0  0  0  0  0  0
    4.4730    9.6310   53.0310 O   0  0  0  0  0  0  0  0  0  0  0  0
    1.4400   -0.5340   51.0190 O   0  0  0  0  0  0  0  0  0  0  0  0
    4.5520    8.4420   58.3900 O   0  0  0  0  0  0  0  0  0  0  0  0
    3.5620    0.5600   55.9970 O   0  0  0  0  0  0  0  0  0  0  0  0
  1  5  2  0
  1 15  1  0
  2  6  1  0
  2 15  2  0
  3  7  2  0
  3 16  1  0
  4  8  1  0
  4 16  2  0
  5 17  1  0
  6 17  2  0
  7 18  1  0
  8 18  2  0
  9 12  2  0
  9 13  1  0
 10 12  1  0
 10 14  2  0
 11 13  2  0
 11 14  1  0
 12 19  1  0
 13 26  1  0
 14 27  1  0
 15 32  1  0
 16 33  1  0
 17 34  1  0
 18 35  1  0
 19 28  1  0
 19 31  2  0
 20 24  1  0
 20 26  1  0
 20 29  2  0
 21 25  1  0
 21 27  1  0
 21 30  2  0
 22 32  1  0
 23 33  1  0
 24 34  1  0
 25 35  1  0
M  CHG  1  28  -1
M  END
>  <washed_aromatic_smiles>  (56) 
COc1ccc(cc1)OCC(=O)Nc2cc(cc(c2)NC(=O)COc3ccc(cc3)OC)C(=O)O

>  <name>  (56) 
neg107216

$$$$
neg46380
     RDKit          3D

 31 33  0  0  0  0  0  0  0  0999 V2000
    5.7330   12.8750   58.5350 C   0  0  0  0  0  0  0  0  0  0  0  0
    5.4480   13.3330   57.2570 C   0  0  0  0  0  0  0  0  0  0  0  0
    5.5710   11.5330   58.8390 C   0  0  0  0  0  0  0  0  0  0  0  0
    4.1750    7.8410   53.8630 C   0  0  0  0  0  0  0  0  0  0  0  0
    2.4180    9.2120   52.9470 C   0  0  0  0  0  0  0  0  0  0  0  0
    5.0290   12.4550   56.2700 C   0  0  0  0  0  0  0  0  0  0  0  0
    3.5710    6.7160   53.3290 C   0  0  0  0  0  0  0  0  0  0  0  0
    1.7580    8.0830   52.4940 C   0  0  0  0  0  0  0  0  0  0  0  0
    0.8340    0.3440   48.6740 C   0  0  0  0  0  0  0  0  0  0  0  0
    0.8740    2.5740   47.7000 C   0  0  0  0  0  0  0  0  0  0  0  0
    1.6760    0.7820   49.6870 C   0  0  0  0  0  0  0  0  0  0  0  0
    1.7520    2.9990   48.6680 C   0  0  0  0  0  0  0  0  0  0  0  0
    3.6230    9.1060   53.6570 C   0  0  0  0  0  0  0  0  0  0  0  0
    5.1700   10.6070   57.8690 C   0  0  0  0  0  0  0  0  0  0  0  0
    2.3840    6.8530   52.6190 C   0  0  0  0  0  0  0  0  0  0  0  0
    4.8990   11.0930   56.5690 C   0  0  0  0  0  0  0  0  0  0  0  0
    0.4900    1.2410   47.6670 C   0  0  0  0  0  0  0  0  0  0  0  0
    2.1590    2.0900   49.6370 C   0  0  0  0  0  0  0  0  0  0  0  0
    4.2990   10.2510   54.2320 C   0  0  0  0  0  0  0  0  0  0  0  0
    5.0920    9.1910   58.2450 C   0  0  0  0  0  0  0  0  0  0  0  0
    2.6350    4.9230   51.2120 C   0  0  0  0  0  0  0  0  0  0  0  0
    0.7190    0.7190   45.4170 C   0  0  0  0  0  0  0  0  0  0  0  0
    2.3720    3.4630   51.4350 C   0  0  0  0  0  0  0  0  0  0  0  0
    4.4690   10.1590   55.6020 N   0  0  0  0  0  0  0  0  0  0  0  0
    1.8540    5.7270   52.0010 N   0  0  0  0  0  0  0  0  0  0  0  0
    4.6920   11.2220   53.5930 O   0  0  0  0  0  0  0  0  0  0  0  0
    5.9220    8.7390   59.0830 O   0  0  0  0  0  0  0  0  0  0  0  0
    3.5120    5.3820   50.5040 O   0  0  0  0  0  0  0  0  0  0  0  0
    4.2130    8.4310   57.7520 O   0  0  0  0  0  0  0  0  0  0  0  0
   -0.1490    0.8140   46.5680 O   0  0  0  0  0  0  0  0  0  0  0  0
    2.9960    2.5250   50.5940 O   0  0  0  0  0  0  0  0  0  0  0  0
  1  2  2  0
  1  3  1  0
  2  6  1  0
  3 14  2  0
  4  7  2  0
  4 13  1  0
  5  8  1  0
  5 13  2  0
  6 16  2  0
  7 15  1  0
  8 15  2  0
  9 11  2  0
  9 17  1  0
 10 12  1  0
 10 17  2  0
 11 18  1  0
 12 18  2  0
 13 19  1  0
 14 16  1  0
 14 20  1  0
 15 25  1  0
 16 24  1  0
 17 30  1  0
 18 31  1  0
 19 24  1  0
 19 26  2  0
 20 27  1  0
 20 29  2  0
 21 23  1  0
 21 25  1  0
 21 28  2  0
 22 30  1  0
 23 31  1  0
M  CHG  1  27  -1
M  END
>  <washed_aromatic_smiles>  (57) 
COc1ccc(cc1)OCC(=O)Nc2ccc(cc2)C(=O)Nc3ccccc3C(=O)O

>  <name>  (57) 
neg46380

$$$$
neg221964
     RDKit          3D

 26 27  0  0  0  0  0  0  0  0999 V2000
    4.9070   12.1410   54.7080 C   0  0  0  0  0  0  0  0  0  0  0  0
    5.2160   12.9870   55.7610 C   0  0  0  0  0  0  0  0  0  0  0  0
    2.1090    1.7160   50.5400 C   0  0  0  0  0  0  0  0  0  0  0  0
    1.5410    3.2320   48.7280 C   0  0  0  0  0  0  0  0  0  0  0  0
    2.5350    2.7940   51.3060 C   0  0  0  0  0  0  0  0  0  0  0  0
    1.9580    4.3100   49.5000 C   0  0  0  0  0  0  0  0  0  0  0  0
    4.8770   10.2560   56.2170 C   0  0  0  0  0  0  0  0  0  0  0  0
    4.7390   10.7660   54.9210 C   0  0  0  0  0  0  0  0  0  0  0  0
    1.5850    1.9450   49.2640 C   0  0  0  0  0  0  0  0  0  0  0  0
    2.4200    4.0900   50.8010 C   0  0  0  0  0  0  0  0  0  0  0  0
    5.4040   12.4730   57.0410 C   0  0  0  0  0  0  0  0  0  0  0  0
    5.2120   11.1000   57.2770 C   0  0  0  0  0  0  0  0  0  0  0  0
    4.4000    9.8870   53.8130 C   0  0  0  0  0  0  0  0  0  0  0  0
    2.2730    7.3170   52.7230 C   0  0  0  0  0  0  0  0  0  0  0  0
    0.5510   -0.2900   49.1000 C   0  0  0  0  0  0  0  0  0  0  0  0
    6.2400   13.2060   59.3530 C   0  0  0  0  0  0  0  0  0  0  0  0
    5.4370    9.1560   58.8400 C   0  0  0  0  0  0  0  0  0  0  0  0
    2.2100    6.4770   51.4660 C   0  0  0  0  0  0  0  0  0  0  0  0
    3.5020    8.9740   53.9000 N   0  0  0  0  0  0  0  0  0  0  0  0
    5.1050   10.0940   52.6300 N   0  0  0  0  0  0  0  0  0  0  0  0
    1.4780    7.2160   53.6350 O   0  0  0  0  0  0  0  0  0  0  0  0
    1.0730    0.9160   48.5000 O   0  0  0  0  0  0  0  0  0  0  0  0
    5.7940   13.3970   57.9960 O   0  0  0  0  0  0  0  0  0  0  0  0
    5.3540   10.5750   58.5550 O   0  0  0  0  0  0  0  0  0  0  0  0
    2.7520    5.1380   51.6450 O   0  0  0  0  0  0  0  0  0  0  0  0
    3.2810    8.2160   52.7790 O   0  0  0  0  0  0  0  0  0  0  0  0
  1  2  2  0
  1  8  1  0
  2 11  1  0
  3  5  2  0
  3  9  1  0
  4  6  1  0
  4  9  2  0
  5 10  1  0
  6 10  2  0
  7  8  2  0
  7 12  1  0
  8 13  1  0
  9 22  1  0
 10 25  1  0
 11 12  2  0
 11 23  1  0
 12 24  1  0
 13 19  2  0
 13 20  1  0
 14 18  1  0
 14 21  2  0
 14 26  1  0
 15 22  1  0
 16 23  1  0
 17 24  1  0
 18 25  1  0
 19 26  1  0
M  END
>  <washed_aromatic_smiles>  (58) 
COc1ccc(cc1)OCC(=O)O/N=C(/c2ccc(c(c2)OC)OC)\N

>  <name>  (58) 
neg221964

$$$$
neg122116
     RDKit          3D

 33 36  0  0  0  0  0  0  0  0999 V2000
   -1.4220    7.0240   57.1760 C   0  0  0  0  0  0  0  0  0  0  0  0
   -0.8210    8.7840   58.5450 C   0  0  0  0  0  0  0  0  0  0  0  0
   -2.3470    6.5690   58.1230 C   0  0  0  0  0  0  0  0  0  0  0  0
   -1.6160    8.3130   59.5770 C   0  0  0  0  0  0  0  0  0  0  0  0
    0.1940    8.2400   54.0280 C   0  0  0  0  0  0  0  0  0  0  0  0
    0.7730    7.5540   52.9660 C   0  0  0  0  0  0  0  0  0  0  0  0
    2.8790    7.6840   54.0910 C   0  0  0  0  0  0  0  0  0  0  0  0
   -0.6960    8.1670   57.3480 C   0  0  0  0  0  0  0  0  0  0  0  0
   -2.4260    7.2260   59.3420 C   0  0  0  0  0  0  0  0  0  0  0  0
    0.9210    8.5010   55.1770 C   0  0  0  0  0  0  0  0  0  0  0  0
    2.1190    7.2010   53.0300 C   0  0  0  0  0  0  0  0  0  0  0  0
    2.3200    8.3860   55.1460 C   0  0  0  0  0  0  0  0  0  0  0  0
    1.5670    3.0740   49.0400 C   0  0  0  0  0  0  0  0  0  0  0  0
    5.6240   12.7440   54.7920 C   0  0  0  0  0  0  0  0  0  0  0  0
    1.4690    4.6090   49.0810 C   0  0  0  0  0  0  0  0  0  0  0  0
    1.8610    2.5300   50.4490 C   0  0  0  0  0  0  0  0  0  0  0  0
    5.1480   11.6470   53.8360 C   0  0  0  0  0  0  0  0  0  0  0  0
    4.7410   12.7680   56.0350 C   0  0  0  0  0  0  0  0  0  0  0  0
    1.0920    5.1510   50.4810 C   0  0  0  0  0  0  0  0  0  0  0  0
    2.6810    3.5480   51.2590 C   0  0  0  0  0  0  0  0  0  0  0  0
    4.9340   10.2920   54.5330 C   0  0  0  0  0  0  0  0  0  0  0  0
    4.6350   11.3840   56.6900 C   0  0  0  0  0  0  0  0  0  0  0  0
   -4.1850    7.8030   60.9230 C   0  0  0  0  0  0  0  0  0  0  0  0
    2.0560    4.8700   51.4860 N   0  0  0  0  0  0  0  0  0  0  0  0
    4.1180   10.3690   55.7660 N   0  0  0  0  0  0  0  0  0  0  0  0
    3.2500    6.8900   50.6940 O   0  0  0  0  0  0  0  0  0  0  0  0
    4.1230    5.6530   52.6060 O   0  0  0  0  0  0  0  0  0  0  0  0
    2.7190    9.2860   57.5650 O   0  0  0  0  0  0  0  0  0  0  0  0
    4.4910    8.0020   56.5710 O   0  0  0  0  0  0  0  0  0  0  0  0
    0.2220    8.7750   56.4080 O   0  0  0  0  0  0  0  0  0  0  0  0
   -3.2840    6.8300   60.3260 O   0  0  0  0  0  0  0  0  0  0  0  0
    3.0050    6.1460   51.8820 S   0  0  0  0  0  0  0  0  0  0  0  0
    3.4610    8.9720   56.4040 S   0  0  0  0  0  0  0  0  0  0  0  0
  1  3  2  0
  1  8  1  0
  2  4  1  0
  2  8  2  0
  3  9  1  0
  4  9  2  0
  5  6  2  0
  5 10  1  0
  6 11  1  0
  7 11  2  0
  7 12  1  0
  8 30  1  0
  9 31  1  0
 10 12  2  0
 10 30  1  0
 11 32  1  0
 12 33  1  0
 13 15  1  0
 13 16  1  0
 14 17  1  0
 14 18  1  0
 15 19  1  0
 16 20  1  0
 17 21  1  0
 18 22  1  0
 19 24  1  0
 20 24  1  0
 21 25  1  0
 22 25  1  0
 23 31  1  0
 24 32  1  0
 25 33  1  0
 26 32  2  0
 27 32  2  0
 28 33  2  0
 29 33  2  0
M  END
>  <washed_aromatic_smiles>  (59) 
COc1ccc(cc1)Oc2ccc(cc2S(=O)(=O)N3CCCCC3)S(=O)(=O)N4CCCCC4

>  <name>  (59) 
neg122116

$$$$
neg268183
     RDKit          3D

 33 36  0  0  0  0  0  0  0  0999 V2000
    2.7080    1.8990   53.4420 C   0  0  0  0  0  0  0  0  0  0  0  0
    2.7930    2.5920   51.1080 C   0  0  0  0  0  0  0  0  0  0  0  0
    3.6390    4.5950   48.2840 C   0  0  0  0  0  0  0  0  0  0  0  0
    1.4120    4.8980   49.1020 C   0  0  0  0  0  0  0  0  0  0  0  0
    2.7210    9.0870   55.8670 C   0  0  0  0  0  0  0  0  0  0  0  0
    4.8900    8.5930   54.8840 C   0  0  0  0  0  0  0  0  0  0  0  0
    2.1230    0.7180   53.0660 C   0  0  0  0  0  0  0  0  0  0  0  0
    2.2540    1.3890   50.7200 C   0  0  0  0  0  0  0  0  0  0  0  0
    3.2280    3.5540   47.5030 C   0  0  0  0  0  0  0  0  0  0  0  0
    1.0600    3.7130   48.4790 C   0  0  0  0  0  0  0  0  0  0  0  0
    3.3270    9.2770   57.0970 C   0  0  0  0  0  0  0  0  0  0  0  0
    5.4870    8.7530   56.1270 C   0  0  0  0  0  0  0  0  0  0  0  0
    2.9710    2.8530   52.4640 C   0  0  0  0  0  0  0  0  0  0  0  0
    2.7080    5.3810   48.9050 C   0  0  0  0  0  0  0  0  0  0  0  0
    3.5130    8.7860   54.7680 C   0  0  0  0  0  0  0  0  0  0  0  0
    1.9300    0.4760   51.7050 C   0  0  0  0  0  0  0  0  0  0  0  0
    1.8920    3.1460   47.5550 C   0  0  0  0  0  0  0  0  0  0  0  0
    4.7090    9.1460   57.2110 C   0  0  0  0  0  0  0  0  0  0  0  0
    3.2740    5.3570   52.5760 C   0  0  0  0  0  0  0  0  0  0  0  0
    3.1220    6.6190   50.7880 C   0  0  0  0  0  0  0  0  0  0  0  0
    3.0140    7.5700   52.8110 C   0  0  0  0  0  0  0  0  0  0  0  0
    2.3420   -1.6910   51.8900 C   0  0  0  0  0  0  0  0  0  0  0  0
    0.1630    1.3770   46.9240 C   0  0  0  0  0  0  0  0  0  0  0  0
    5.1870   10.8410   58.7930 C   0  0  0  0  0  0  0  0  0  0  0  0
    3.2960    5.4560   51.3130 N   0  0  0  0  0  0  0  0  0  0  0  0
    3.1900    6.3920   53.4090 N   0  0  0  0  0  0  0  0  0  0  0  0
    2.9490    7.7220   51.5000 N   0  0  0  0  0  0  0  0  0  0  0  0
    3.2850    4.0920   52.9570 O   0  0  0  0  0  0  0  0  0  0  0  0
    3.1930    6.5680   49.4640 O   0  0  0  0  0  0  0  0  0  0  0  0
    2.8990    8.6900   53.5500 O   0  0  0  0  0  0  0  0  0  0  0  0
    1.5270   -0.7120   51.2970 O   0  0  0  0  0  0  0  0  0  0  0  0
    1.3150    2.2070   46.7110 O   0  0  0  0  0  0  0  0  0  0  0  0
    5.3300    9.4610   58.3880 O   0  0  0  0  0  0  0  0  0  0  0  0
  1  7  2  0
  1 13  1  0
  2  8  1  0
  2 13  2  0
  3  9  2  0
  3 14  1  0
  4 10  1  0
  4 14  2  0
  5 11  2  0
  5 15  1  0
  6 12  1  0
  6 15  2  0
  7 16  1  0
  8 16  2  0
  9 17  1  0
 10 17  2  0
 11 18  1  0
 12 18  2  0
 13 28  1  0
 14 29  1  0
 15 30  1  0
 16 31  1  0
 17 32  1  0
 18 33  1  0
 19 25  2  0
 19 26  1  0
 19 28  1  0
 20 25  1  0
 20 27  2  0
 20 29  1  0
 21 26  2  0
 21 27  1  0
 21 30  1  0
 22 31  1  0
 23 32  1  0
 24 33  1  0
M  END
>  <washed_aromatic_smiles>  (60) 
COc1ccc(cc1)Oc2nc(nc(n2)Oc3ccc(cc3)OC)Oc4ccc(cc4)OC

>  <name>  (60) 
neg268183

$$$$
neg179616
     RDKit          3D

 28 30  0  0  0  0  0  0  0  0999 V2000
   -1.3150    0.3850   50.1380 C   0  0  0  0  0  0  0  0  0  0  0  0
   -1.3060   -0.3300   48.9600 C   0  0  0  0  0  0  0  0  0  0  0  0
   -0.2060    1.1070   50.5520 C   0  0  0  0  0  0  0  0  0  0  0  0
    5.5150    8.4560   56.5110 C   0  0  0  0  0  0  0  0  0  0  0  0
    3.2900    8.9870   57.2800 C   0  0  0  0  0  0  0  0  0  0  0  0
   -0.0730   -0.5400   48.4340 C   0  0  0  0  0  0  0  0  0  0  0  0
    5.0370    8.4080   55.2070 C   0  0  0  0  0  0  0  0  0  0  0  0
    2.8160    8.9070   55.9870 C   0  0  0  0  0  0  0  0  0  0  0  0
    0.8240    1.3320   49.6140 C   0  0  0  0  0  0  0  0  0  0  0  0
    4.6290    8.7240   57.5500 C   0  0  0  0  0  0  0  0  0  0  0  0
    0.8360    0.4430   48.5440 C   0  0  0  0  0  0  0  0  0  0  0  0
    3.6820    8.6140   54.9420 C   0  0  0  0  0  0  0  0  0  0  0  0
    3.3510    5.8980   50.1510 C   0  0  0  0  0  0  0  0  0  0  0  0
    1.5840    3.3760   50.7760 C   0  0  0  0  0  0  0  0  0  0  0  0
    2.4360    2.9510   48.4990 C   0  0  0  0  0  0  0  0  0  0  0  0
    1.2660    4.7750   50.3100 C   0  0  0  0  0  0  0  0  0  0  0  0
    2.5340    4.4710   48.3390 C   0  0  0  0  0  0  0  0  0  0  0  0
    6.0970    7.8420   59.3130 C   0  0  0  0  0  0  0  0  0  0  0  0
    2.9100    7.0050   51.1210 C   0  0  0  0  0  0  0  0  0  0  0  0
    3.1570    6.9990   52.6360 C   0  0  0  0  0  0  0  0  0  0  0  0
    1.7540    2.4110   49.7070 N   0  0  0  0  0  0  0  0  0  0  0  0
    2.3830    5.2110   49.5700 N   0  0  0  0  0  0  0  0  0  0  0  0
    4.4910    5.8170   49.7150 O   0  0  0  0  0  0  0  0  0  0  0  0
    1.7210    9.0750   53.2730 O   0  0  0  0  0  0  0  0  0  0  0  0
    3.9970    9.4900   52.5530 O   0  0  0  0  0  0  0  0  0  0  0  0
    5.0470    8.7230   58.8580 O   0  0  0  0  0  0  0  0  0  0  0  0
    1.5170    0.4440   47.4810 F   0  0  0  0  0  0  0  0  0  0  0  0
    3.0860    8.6730   53.2740 S   0  0  0  0  0  0  0  0  0  0  0  0
  1  2  2  0
  1  3  1  0
  2  6  1  0
  3  9  2  0
  4  7  2  0
  4 10  1  0
  5  8  1  0
  5 10  2  0
  6 11  2  0
  7 12  1  0
  8 12  2  0
  9 11  1  0
  9 21  1  0
 10 26  1  0
 11 27  1  0
 12 28  1  0
 13 19  1  0
 13 22  1  0
 13 23  2  0
 14 16  1  0
 14 21  1  0
 15 17  1  0
 15 21  1  0
 16 22  1  0
 17 22  1  0
 18 26  1  0
 19 20  1  0
 20 28  1  0
 24 28  2  0
 25 28  2  0
M  END
>  <washed_aromatic_smiles>  (61) 
COc1ccc(cc1)S(=O)(=O)CCC(=O)N2CCN(CC2)c3ccccc3F

>  <name>  (61) 
neg179616

$$$$
neg251744
     RDKit          3D

 25 26  0  0  0  0  0  0  0  0999 V2000
    0.9010    7.1070   53.2890 C   0  0  0  0  0  0  0  0  0  0  0  0
    2.8430    8.0320   52.2530 C   0  0  0  0  0  0  0  0  0  0  0  0
    0.8090    0.4840   52.6810 C   0  0  0  0  0  0  0  0  0  0  0  0
    2.4810   -1.1000   51.9990 C   0  0  0  0  0  0  0  0  0  0  0  0
    0.3200    0.5380   51.3820 C   0  0  0  0  0  0  0  0  0  0  0  0
    2.0270   -1.0030   50.6910 C   0  0  0  0  0  0  0  0  0  0  0  0
    1.0760    7.9490   54.3790 C   0  0  0  0  0  0  0  0  0  0  0  0
    3.0830    8.8200   53.3720 C   0  0  0  0  0  0  0  0  0  0  0  0
    1.8210    7.0860   52.2550 C   0  0  0  0  0  0  0  0  0  0  0  0
    1.8810   -0.3410   52.9860 C   0  0  0  0  0  0  0  0  0  0  0  0
    0.9490   -0.1820   50.3640 C   0  0  0  0  0  0  0  0  0  0  0  0
    2.2420    8.7080   54.4780 C   0  0  0  0  0  0  0  0  0  0  0  0
    2.1270    3.8340   48.9480 C   0  0  0  0  0  0  0  0  0  0  0  0
    2.8950    0.7810   54.8520 C   0  0  0  0  0  0  0  0  0  0  0  0
    1.6770    5.9940   51.2130 C   0  0  0  0  0  0  0  0  0  0  0  0
    1.9330    2.3360   49.0870 C   0  0  0  0  0  0  0  0  0  0  0  0
    2.9170    5.7240   50.3440 C   0  0  0  0  0  0  0  0  0  0  0  0
    0.8080    1.6900   48.2530 C   0  0  0  0  0  0  0  0  0  0  0  0
    2.8880    4.3410   49.9200 N   0  0  0  0  0  0  0  0  0  0  0  0
    1.5140    4.4920   48.1140 O   0  0  0  0  0  0  0  0  0  0  0  0
    1.1930   -0.8730   47.8450 O   0  0  0  0  0  0  0  0  0  0  0  0
   -0.9980   -0.1960   48.6190 O   0  0  0  0  0  0  0  0  0  0  0  0
    2.3710   -0.4210   54.2610 O   0  0  0  0  0  0  0  0  0  0  0  0
    0.4100   -0.0160   48.6610 S   0  0  0  0  0  0  0  0  0  0  0  0
    2.6870    9.4370   55.9930 Cl  0  0  0  0  0  0  0  0  0  0  0  0
  1  7  2  0
  1  9  1  0
  2  8  1  0
  2  9  2  0
  3  5  2  0
  3 10  1  0
  4  6  1  0
  4 10  2  0
  5 11  1  0
  6 11  2  0
  7 12  1  0
  8 12  2  0
  9 15  1  0
 10 23  1  0
 11 24  1  0
 12 25  1  0
 13 16  1  0
 13 19  1  0
 13 20  2  0
 14 23  1  0
 15 17  1  0
 16 18  1  0
 17 19  1  0
 18 24  1  0
 21 24  2  0
 22 24  2  0
M  END
>  <washed_aromatic_smiles>  (62) 
COc1ccc(cc1)S(=O)(=O)CCC(=O)NCCc2ccc(cc2)Cl

>  <name>  (62) 
neg251744

$$$$
neg251745
     RDKit          3D

 26 27  0  0  0  0  0  0  0  0999 V2000
    1.8890    8.6870   55.2630 C   0  0  0  0  0  0  0  0  0  0  0  0
    2.1830    9.3290   56.4650 C   0  0  0  0  0  0  0  0  0  0  0  0
    2.7210    1.7630   52.3000 C   0  0  0  0  0  0  0  0  0  0  0  0
    1.7700    0.7380   50.3270 C   0  0  0  0  0  0  0  0  0  0  0  0
    2.7650    2.9810   51.6400 C   0  0  0  0  0  0  0  0  0  0  0  0
    1.8580    1.9580   49.6620 C   0  0  0  0  0  0  0  0  0  0  0  0
    4.4180    9.8110   55.6830 C   0  0  0  0  0  0  0  0  0  0  0  0
    2.8830    8.5240   54.2980 C   0  0  0  0  0  0  0  0  0  0  0  0
    2.1920    0.6530   51.6490 C   0  0  0  0  0  0  0  0  0  0  0  0
    3.4400    9.8940   56.6670 C   0  0  0  0  0  0  0  0  0  0  0  0
    4.1440    9.0960   54.5200 C   0  0  0  0  0  0  0  0  0  0  0  0
    2.3560    3.0920   50.3110 C   0  0  0  0  0  0  0  0  0  0  0  0
    1.4660    7.4040   52.5270 C   0  0  0  0  0  0  0  0  0  0  0  0
    1.6540   -0.5190   53.7100 C   0  0  0  0  0  0  0  0  0  0  0  0
    4.9590   11.0740   58.2720 C   0  0  0  0  0  0  0  0  0  0  0  0
    6.5020    8.8700   53.9690 C   0  0  0  0  0  0  0  0  0  0  0  0
    1.3900    6.2060   51.5910 C   0  0  0  0  0  0  0  0  0  0  0  0
    2.5980    5.9410   50.6710 C   0  0  0  0  0  0  0  0  0  0  0  0
    2.6720    7.6980   53.1380 N   0  0  0  0  0  0  0  0  0  0  0  0
    0.4750    8.0710   52.7630 O   0  0  0  0  0  0  0  0  0  0  0  0
    3.5930    4.6520   48.6100 O   0  0  0  0  0  0  0  0  0  0  0  0
    1.1830    4.8060   48.7490 O   0  0  0  0  0  0  0  0  0  0  0  0
    2.0410   -0.5330   52.3160 O   0  0  0  0  0  0  0  0  0  0  0  0
    3.6880   10.5350   57.8610 O   0  0  0  0  0  0  0  0  0  0  0  0
    5.1230    8.9210   53.5900 O   0  0  0  0  0  0  0  0  0  0  0  0
    2.4250    4.6490   49.4220 S   0  0  0  0  0  0  0  0  0  0  0  0
  1  2  2  0
  1  8  1  0
  2 10  1  0
  3  5  2  0
  3  9  1  0
  4  6  1  0
  4  9  2  0
  5 12  1  0
  6 12  2  0
  7 10  2  0
  7 11  1  0
  8 11  2  0
  8 19  1  0
  9 23  1  0
 10 24  1  0
 11 25  1  0
 12 26  1  0
 13 17  1  0
 13 19  1  0
 13 20  2  0
 14 23  1  0
 15 24  1  0
 16 25  1  0
 17 18  1  0
 18 26  1  0
 21 26  2  0
 22 26  2  0
M  END
>  <washed_aromatic_smiles>  (63) 
COc1ccc(cc1)S(=O)(=O)CCC(=O)Nc2ccc(cc2OC)OC

>  <name>  (63) 
neg251745

$$$$
neg106136
     RDKit          3D

 28 30  0  0  0  0  0  0  0  0999 V2000
    2.9590    6.5020   50.5700 C   0  0  0  0  0  0  0  0  0  0  0  0
   -1.4680    0.2590   50.2180 C   0  0  0  0  0  0  0  0  0  0  0  0
    2.2240    5.5640   51.2780 C   0  0  0  0  0  0  0  0  0  0  0  0
    3.5380    6.1510   49.3560 C   0  0  0  0  0  0  0  0  0  0  0  0
   -0.7760    0.9170   51.2220 C   0  0  0  0  0  0  0  0  0  0  0  0
   -0.8390   -0.0290   49.0120 C   0  0  0  0  0  0  0  0  0  0  0  0
    2.1040    4.2750   50.7800 C   0  0  0  0  0  0  0  0  0  0  0  0
    3.4520    4.8510   48.8890 C   0  0  0  0  0  0  0  0  0  0  0  0
    0.5190    1.2330   51.0520 C   0  0  0  0  0  0  0  0  0  0  0  0
    2.8950    1.8480   54.5250 C   0  0  0  0  0  0  0  0  0  0  0  0
    2.9020   -0.5060   54.8110 C   0  0  0  0  0  0  0  0  0  0  0  0
    2.9950    1.7090   53.1520 C   0  0  0  0  0  0  0  0  0  0  0  0
    2.8860   -0.6670   53.4290 C   0  0  0  0  0  0  0  0  0  0  0  0
    0.4620    0.3960   48.7710 C   0  0  0  0  0  0  0  0  0  0  0  0
    2.7550    3.8960   49.6120 C   0  0  0  0  0  0  0  0  0  0  0  0
    1.1480    0.9800   49.8610 C   0  0  0  0  0  0  0  0  0  0  0  0
    3.0190    0.7610   55.3400 C   0  0  0  0  0  0  0  0  0  0  0  0
    3.0340    0.4440   52.5890 C   0  0  0  0  0  0  0  0  0  0  0  0
    0.9580    0.2600   47.4130 C   0  0  0  0  0  0  0  0  0  0  0  0
    4.4950    1.7200   57.0800 C   0  0  0  0  0  0  0  0  0  0  0  0
    2.6990    2.5070   49.0280 C   0  0  0  0  0  0  0  0  0  0  0  0
    2.4590    1.3560   49.9200 N   0  0  0  0  0  0  0  0  0  0  0  0
    1.5220   -0.8030   47.0540 O   0  0  0  0  0  0  0  0  0  0  0  0
    4.7390    0.3760   50.6470 O   0  0  0  0  0  0  0  0  0  0  0  0
    2.8180   -1.0800   50.5430 O   0  0  0  0  0  0  0  0  0  0  0  0
    0.7460    1.1940   46.5920 O   0  0  0  0  0  0  0  0  0  0  0  0
    3.3330    0.9860   56.6490 O   0  0  0  0  0  0  0  0  0  0  0  0
    3.3440    0.2020   50.8450 S   0  0  0  0  0  0  0  0  0  0  0  0
  1  3  2  0
  1  4  1  0
  2  5  2  0
  2  6  1  0
  3  7  1  0
  4  8  2  0
  5  9  1  0
  6 14  2  0
  7 15  2  0
  8 15  1  0
  9 16  2  0
 10 12  2  0
 10 17  1  0
 11 13  1  0
 11 17  2  0
 12 18  1  0
 13 18  2  0
 14 16  1  0
 14 19  1  0
 15 21  1  0
 16 22  1  0
 17 27  1  0
 18 28  1  0
 19 23  1  0
 19 26  2  0
 20 27  1  0
 21 22  1  0
 22 28  1  0
 24 28  2  0
 25 28  2  0
M  CHG  1  23  -1
M  END
>  <washed_aromatic_smiles>  (64) 
COc1ccc(cc1)S(=O)(=O)N(Cc2ccccc2)c3ccccc3C(=O)O

>  <name>  (64) 
neg106136

$$$$
neg47788
     RDKit          3D

 29 31  0  0  0  0  0  0  0  0999 V2000
    5.5620   13.0430   57.6560 C   0  0  0  0  0  0  0  0  0  0  0  0
    5.5160   12.7600   56.2820 C   0  0  0  0  0  0  0  0  0  0  0  0
    5.3970   12.0070   58.5930 C   0  0  0  0  0  0  0  0  0  0  0  0
    5.3680   11.4350   55.8460 C   0  0  0  0  0  0  0  0  0  0  0  0
    5.2210   10.6820   58.1590 C   0  0  0  0  0  0  0  0  0  0  0  0
   -0.2730    0.7030   51.1440 C   0  0  0  0  0  0  0  0  0  0  0  0
   -0.2520    0.5730   48.7330 C   0  0  0  0  0  0  0  0  0  0  0  0
    0.8150    1.5390   51.0850 C   0  0  0  0  0  0  0  0  0  0  0  0
    0.7630    1.5210   48.6840 C   0  0  0  0  0  0  0  0  0  0  0  0
    5.2420   10.3890   56.7820 C   0  0  0  0  0  0  0  0  0  0  0  0
   -0.8840    0.3420   49.9620 C   0  0  0  0  0  0  0  0  0  0  0  0
    1.2400    2.0780   49.8700 C   0  0  0  0  0  0  0  0  0  0  0  0
    2.3650    8.0840   53.0860 C   0  0  0  0  0  0  0  0  0  0  0  0
    0.7680    6.4150   51.8280 C   0  0  0  0  0  0  0  0  0  0  0  0
    3.1730    5.8090   52.2590 C   0  0  0  0  0  0  0  0  0  0  0  0
    0.8620    5.1910   50.8680 C   0  0  0  0  0  0  0  0  0  0  0  0
    3.1940    5.7280   50.7210 C   0  0  0  0  0  0  0  0  0  0  0  0
    1.9780    6.6450   52.7320 C   0  0  0  0  0  0  0  0  0  0  0  0
   -3.0250   -0.6430   49.0600 C   0  0  0  0  0  0  0  0  0  0  0  0
    5.2150    8.9480   56.3050 C   0  0  0  0  0  0  0  0  0  0  0  0
    3.8240    8.3640   56.0720 C   0  0  0  0  0  0  0  0  0  0  0  0
    2.9870    9.2530   55.1480 C   0  0  0  0  0  0  0  0  0  0  0  0
    2.1350    4.8210   50.2680 N   0  0  0  0  0  0  0  0  0  0  0  0
    2.0940    8.4310   54.3550 N   0  0  0  0  0  0  0  0  0  0  0  0
    3.0850    8.7500   52.3480 O   0  0  0  0  0  0  0  0  0  0  0  0
    3.3190    2.7460   51.0540 O   0  0  0  0  0  0  0  0  0  0  0  0
    3.2160    3.2110   48.6640 O   0  0  0  0  0  0  0  0  0  0  0  0
   -2.1990   -0.0730   50.0780 O   0  0  0  0  0  0  0  0  0  0  0  0
    2.5850    3.2280   49.9420 S   0  0  0  0  0  0  0  0  0  0  0  0
  1  2  2  0
  1  3  1  0
  2  4  1  0
  3  5  2  0
  4 10  2  0
  5 10  1  0
  6  8  2  0
  6 11  1  0
  7  9  1  0
  7 11  2  0
  8 12  1  0
  9 12  2  0
 10 20  1  0
 11 28  1  0
 12 29  1  0
 13 18  1  0
 13 24  1  0
 13 25  2  0
 14 16  1  0
 14 18  1  0
 15 17  1  0
 15 18  1  0
 16 23  1  0
 17 23  1  0
 19 28  1  0
 20 21  1  0
 21 22  1  0
 22 24  1  0
 23 29  1  0
 26 29  2  0
 27 29  2  0
M  END
>  <washed_aromatic_smiles>  (65) 
COc1ccc(cc1)S(=O)(=O)N2CCC(CC2)C(=O)NCCCc3ccccc3

>  <name>  (65) 
neg47788

$$$$
neg221051
     RDKit          3D

 25 27  0  0  0  0  0  0  0  0999 V2000
   -0.4110    0.0920   48.8500 C   0  0  0  0  0  0  0  0  0  0  0  0
    3.0950    8.9740   56.9640 C   0  0  0  0  0  0  0  0  0  0  0  0
    5.3510    8.5420   56.2060 C   0  0  0  0  0  0  0  0  0  0  0  0
    2.6250    8.7770   55.6740 C   0  0  0  0  0  0  0  0  0  0  0  0
    4.8750    8.3650   54.9140 C   0  0  0  0  0  0  0  0  0  0  0  0
    0.6420    0.8890   48.3730 C   0  0  0  0  0  0  0  0  0  0  0  0
   -0.6620    0.2930   50.1760 C   0  0  0  0  0  0  0  0  0  0  0  0
    4.4600    8.8780   57.2150 C   0  0  0  0  0  0  0  0  0  0  0  0
    3.5120    8.4980   54.6360 C   0  0  0  0  0  0  0  0  0  0  0  0
    1.1920    1.6660   49.3530 C   0  0  0  0  0  0  0  0  0  0  0  0
    2.8490    3.0810   50.5530 C   0  0  0  0  0  0  0  0  0  0  0  0
    3.1470    5.5460   50.1550 C   0  0  0  0  0  0  0  0  0  0  0  0
    2.8440    4.6290   52.3800 C   0  0  0  0  0  0  0  0  0  0  0  0
    2.6990    6.8420   50.8620 C   0  0  0  0  0  0  0  0  0  0  0  0
    3.5970    5.8630   52.8870 C   0  0  0  0  0  0  0  0  0  0  0  0
    5.0550   10.5960   58.7140 C   0  0  0  0  0  0  0  0  0  0  0  0
    2.2350    2.7520   49.2150 C   0  0  0  0  0  0  0  0  0  0  0  0
    2.9080    4.3590   50.9660 N   0  0  0  0  0  0  0  0  0  0  0  0
    2.9970    7.0280   52.2860 N   0  0  0  0  0  0  0  0  0  0  0  0
    3.2470    2.1640   51.2780 O   0  0  0  0  0  0  0  0  0  0  0  0
    1.6330    9.0550   52.9160 O   0  0  0  0  0  0  0  0  0  0  0  0
    3.9420    9.3700   52.2810 O   0  0  0  0  0  0  0  0  0  0  0  0
    4.9580    9.1810   58.4460 O   0  0  0  0  0  0  0  0  0  0  0  0
    0.4650    1.3510   50.8980 S   0  0  0  0  0  0  0  0  0  0  0  0
    2.9730    8.5700   52.9370 S   0  0  0  0  0  0  0  0  0  0  0  0
  1  6  1  0
  1  7  2  0
  2  4  2  0
  2  8  1  0
  3  5  1  0
  3  8  2  0
  4  9  1  0
  5  9  2  0
  6 10  2  0
  7 24  1  0
  8 23  1  0
  9 25  1  0
 10 17  1  0
 10 24  1  0
 11 17  1  0
 11 18  1  0
 11 20  2  0
 12 14  1  0
 12 18  1  0
 13 15  1  0
 13 18  1  0
 14 19  1  0
 15 19  1  0
 16 23  1  0
 19 25  1  0
 21 25  2  0
 22 25  2  0
M  END
>  <washed_aromatic_smiles>  (66) 
COc1ccc(cc1)S(=O)(=O)N2CCN(CC2)C(=O)Cc3cccs3

>  <name>  (66) 
neg221051

$$$$
neg103907
     RDKit          3D

 28 30  0  0  0  0  0  0  0  0999 V2000
    3.3000    0.9720   52.9410 C   0  0  0  0  0  0  0  0  0  0  0  0
    1.2610   -0.2570   53.1810 C   0  0  0  0  0  0  0  0  0  0  0  0
    2.3810    3.4960   51.4200 C   0  0  0  0  0  0  0  0  0  0  0  0
    1.8060    3.8910   49.1520 C   0  0  0  0  0  0  0  0  0  0  0  0
    3.5280    0.7600   54.2830 C   0  0  0  0  0  0  0  0  0  0  0  0
    1.6430   -0.6510   54.4470 C   0  0  0  0  0  0  0  0  0  0  0  0
    2.7880    4.8000   51.5750 C   0  0  0  0  0  0  0  0  0  0  0  0
    2.3530    5.1590   49.2510 C   0  0  0  0  0  0  0  0  0  0  0  0
    2.1460    0.4470   52.3590 C   0  0  0  0  0  0  0  0  0  0  0  0
    1.8630    2.9730   50.2280 C   0  0  0  0  0  0  0  0  0  0  0  0
    2.8670   -0.2370   54.9270 C   0  0  0  0  0  0  0  0  0  0  0  0
    2.7570    5.6460   50.4870 C   0  0  0  0  0  0  0  0  0  0  0  0
    1.8380    0.4700   50.9550 C   0  0  0  0  0  0  0  0  0  0  0  0
    1.4580    1.5320   50.1360 C   0  0  0  0  0  0  0  0  0  0  0  0
    0.0610   -0.1270   49.1210 C   0  0  0  0  0  0  0  0  0  0  0  0
    0.3110    1.6640   46.6790 C   0  0  0  0  0  0  0  0  0  0  0  0
    4.7880   -0.5730   56.6260 C   0  0  0  0  0  0  0  0  0  0  0  0
    2.8000    7.6380   51.9290 C   0  0  0  0  0  0  0  0  0  0  0  0
    1.4230    0.5460   44.8510 C   0  0  0  0  0  0  0  0  0  0  0  0
    1.2060    1.2060   47.7640 C   0  0  0  0  0  0  0  0  0  0  0  0
    1.7760   -0.8330   50.4710 N   0  0  0  0  0  0  0  0  0  0  0  0
    0.9070   -1.1220   49.5910 N   0  0  0  0  0  0  0  0  0  0  0  0
    0.6510    1.1030   49.0700 N   0  0  0  0  0  0  0  0  0  0  0  0
   -1.0280   -0.3280   48.5870 O   0  0  0  0  0  0  0  0  0  0  0  0
   -0.5850    2.3860   46.9700 O   0  0  0  0  0  0  0  0  0  0  0  0
    3.5290   -0.8450   55.9470 O   0  0  0  0  0  0  0  0  0  0  0  0
    3.0680    6.9620   50.6520 O   0  0  0  0  0  0  0  0  0  0  0  0
    0.4650    1.4090   45.3920 O   0  0  0  0  0  0  0  0  0  0  0  0
  1  5  2  0
  1  9  1  0
  2  6  1  0
  2  9  2  0
  3  7  2  0
  3 10  1  0
  4  8  1  0
  4 10  2  0
  5 11  1  0
  6 11  2  0
  7 12  1  0
  8 12  2  0
  9 13  1  0
 10 14  1  0
 11 26  1  0
 12 27  1  0
 13 14  2  0
 13 21  1  0
 14 23  1  0
 15 22  1  0
 15 23  1  0
 15 24  2  0
 16 20  1  0
 16 25  2  0
 16 28  1  0
 17 26  1  0
 18 27  1  0
 19 28  1  0
 20 23  1  0
 21 22  2  0
M  END
>  <washed_aromatic_smiles>  (67) 
COc1ccc(cc1)c2c(n(c(=O)nn2)CC(=O)OC)c3ccc(cc3)OC

>  <name>  (67) 
neg103907

$$$$
neg235892
     RDKit          3D

 28 31  0  0  0  0  0  0  0  0999 V2000
    3.1790   -0.5720   55.1340 C   0  0  0  0  0  0  0  0  0  0  0  0
    3.1010   -1.2200   53.9130 C   0  0  0  0  0  0  0  0  0  0  0  0
    3.0020    0.7930   55.1890 C   0  0  0  0  0  0  0  0  0  0  0  0
    0.9260    1.8490   48.2900 C   0  0  0  0  0  0  0  0  0  0  0  0
    0.3480    1.3700   50.5850 C   0  0  0  0  0  0  0  0  0  0  0  0
    2.9440   -0.5270   52.7390 C   0  0  0  0  0  0  0  0  0  0  0  0
    2.8630    1.4950   54.0090 C   0  0  0  0  0  0  0  0  0  0  0  0
    0.0940    0.8040   47.8850 C   0  0  0  0  0  0  0  0  0  0  0  0
   -0.5040    0.3750   50.1970 C   0  0  0  0  0  0  0  0  0  0  0  0
    1.0340    2.1640   49.6510 C   0  0  0  0  0  0  0  0  0  0  0  0
    2.9470    0.8600   52.7610 C   0  0  0  0  0  0  0  0  0  0  0  0
   -0.6660    0.1200   48.8440 C   0  0  0  0  0  0  0  0  0  0  0  0
    1.7800    3.2540   50.2470 C   0  0  0  0  0  0  0  0  0  0  0  0
    2.6380    2.8650   51.2350 C   0  0  0  0  0  0  0  0  0  0  0  0
    2.0830    5.2120   51.2510 C   0  0  0  0  0  0  0  0  0  0  0  0
    3.1150    1.5390   51.4850 C   0  0  0  0  0  0  0  0  0  0  0  0
    1.2160    8.7730   54.0060 C   0  0  0  0  0  0  0  0  0  0  0  0
    2.6950    8.7200   54.3360 C   0  0  0  0  0  0  0  0  0  0  0  0
    0.5230    7.5300   53.5020 C   0  0  0  0  0  0  0  0  0  0  0  0
    3.4390    8.3080   53.0890 C   0  0  0  0  0  0  0  0  0  0  0  0
    0.7540    7.0370   52.0800 C   0  0  0  0  0  0  0  0  0  0  0  0
    3.1320    6.8500   52.7530 C   0  0  0  0  0  0  0  0  0  0  0  0
   -3.0390   -0.7760   49.1430 C   0  0  0  0  0  0  0  0  0  0  0  0
    1.4970    4.6180   50.2120 N   0  0  0  0  0  0  0  0  0  0  0  0
    2.0830    6.5470   51.7240 N   0  0  0  0  0  0  0  0  0  0  0  0
    3.6090    0.9040   50.5610 O   0  0  0  0  0  0  0  0  0  0  0  0
   -1.7270   -0.6450   48.4480 O   0  0  0  0  0  0  0  0  0  0  0  0
    2.9180    4.1580   52.2720 S   0  0  0  0  0  0  0  0  0  0  0  0
  1  2  2  0
  1  3  1  0
  2  6  1  0
  3  7  2  0
  4  8  2  0
  4 10  1  0
  5  9  1  0
  5 10  2  0
  6 11  2  0
  7 11  1  0
  8 12  1  0
  9 12  2  0
 10 13  1  0
 11 16  1  0
 12 27  1  0
 13 14  2  0
 13 24  1  0
 14 16  1  0
 14 28  1  0
 15 24  2  0
 15 25  1  0
 15 28  1  0
 16 26  2  0
 17 18  1  0
 17 19  1  0
 18 20  1  0
 19 21  1  0
 20 22  1  0
 21 25  1  0
 22 25  1  0
 23 27  1  0
M  END
>  <washed_aromatic_smiles>  (68) 
COc1ccc(cc1)c2c(sc(n2)N3CCCCCC3)C(=O)c4ccccc4

>  <name>  (68) 
neg235892

$$$$
neg245437
     RDKit          3D

 28 31  0  0  0  0  0  0  0  0999 V2000
    1.5850   -0.2040   53.1770 C   0  0  0  0  0  0  0  0  0  0  0  0
    2.3260    0.4900   54.1140 C   0  0  0  0  0  0  0  0  0  0  0  0
    1.3740    0.3500   51.9330 C   0  0  0  0  0  0  0  0  0  0  0  0
    2.7720    1.7530   53.8000 C   0  0  0  0  0  0  0  0  0  0  0  0
    0.9050    2.0410   47.9200 C   0  0  0  0  0  0  0  0  0  0  0  0
    1.2410   -0.0160   49.1080 C   0  0  0  0  0  0  0  0  0  0  0  0
   -0.1660    1.4790   47.2600 C   0  0  0  0  0  0  0  0  0  0  0  0
    0.1390   -0.5520   48.5130 C   0  0  0  0  0  0  0  0  0  0  0  0
    1.4500    1.3590   49.0230 C   0  0  0  0  0  0  0  0  0  0  0  0
    2.0360    1.5320   51.5040 C   0  0  0  0  0  0  0  0  0  0  0  0
    2.6750    2.2910   52.4930 C   0  0  0  0  0  0  0  0  0  0  0  0
   -0.6550    0.2730   47.7510 C   0  0  0  0  0  0  0  0  0  0  0  0
    1.9740    2.0960   50.1510 C   0  0  0  0  0  0  0  0  0  0  0  0
    2.9110    3.7030   52.1750 C   0  0  0  0  0  0  0  0  0  0  0  0
    1.3980    6.3060   51.5500 C   0  0  0  0  0  0  0  0  0  0  0  0
    2.4080    8.4930   54.7260 C   0  0  0  0  0  0  0  0  0  0  0  0
    3.4050    8.0000   53.6670 C   0  0  0  0  0  0  0  0  0  0  0  0
    0.9640    8.0250   54.4180 C   0  0  0  0  0  0  0  0  0  0  0  0
    2.8300    8.2230   52.2660 C   0  0  0  0  0  0  0  0  0  0  0  0
    0.5610    8.1590   52.9530 C   0  0  0  0  0  0  0  0  0  0  0  0
   -2.7030   -0.5510   48.8600 C   0  0  0  0  0  0  0  0  0  0  0  0
    2.4850    5.6300   50.7030 C   0  0  0  0  0  0  0  0  0  0  0  0
    2.2080    3.3520   49.9340 N   0  0  0  0  0  0  0  0  0  0  0  0
    2.5680    4.1730   50.9320 N   0  0  0  0  0  0  0  0  0  0  0  0
    1.5700    7.5220   52.1200 N   0  0  0  0  0  0  0  0  0  0  0  0
    3.4060    4.5570   52.9020 O   0  0  0  0  0  0  0  0  0  0  0  0
    0.3450    5.7070   51.7400 O   0  0  0  0  0  0  0  0  0  0  0  0
   -1.9800   -0.0190   47.6760 O   0  0  0  0  0  0  0  0  0  0  0  0
  1  2  2  0
  1  3  1  0
  2  4  1  0
  3 10  2  0
  4 11  2  0
  5  7  2  0
  5  9  1  0
  6  8  1  0
  6  9  2  0
  7 12  1  0
  8 12  2  0
  9 13  1  0
 10 11  1  0
 10 13  1  0
 11 14  1  0
 12 28  1  0
 13 23  2  0
 14 24  1  0
 14 26  2  0
 15 22  1  0
 15 25  1  0
 15 27  2  0
 16 17  1  0
 16 18  1  0
 17 19  1  0
 18 20  1  0
 19 25  1  0
 20 25  1  0
 21 28  1  0
 22 24  1  0
 23 24  1  0
M  END
>  <washed_aromatic_smiles>  (69) 
COc1ccc(cc1)c2c3ccccc3c(=O)n(n2)CC(=O)N4CCCCC4

>  <name>  (69) 
neg245437

$$$$
neg162877
     RDKit          3D

 31 35  0  0  0  0  0  0  0  0999 V2000
   -1.3820    0.1850   50.0320 C   0  0  0  0  0  0  0  0  0  0  0  0
    0.5310    8.4610   53.6390 C   0  0  0  0  0  0  0  0  0  0  0  0
   -0.7520   -0.0900   48.8200 C   0  0  0  0  0  0  0  0  0  0  0  0
   -0.7330    0.9260   50.9890 C   0  0  0  0  0  0  0  0  0  0  0  0
    1.7700    8.4850   54.2720 C   0  0  0  0  0  0  0  0  0  0  0  0
    0.2200    7.4340   52.7640 C   0  0  0  0  0  0  0  0  0  0  0  0
    3.3010    6.1420   48.0420 C   0  0  0  0  0  0  0  0  0  0  0  0
    3.4720    7.0110   49.0970 C   0  0  0  0  0  0  0  0  0  0  0  0
    2.8630    2.1190   53.5780 C   0  0  0  0  0  0  0  0  0  0  0  0
    3.1300    0.5730   51.8120 C   0  0  0  0  0  0  0  0  0  0  0  0
    0.4880    0.4650   48.5360 C   0  0  0  0  0  0  0  0  0  0  0  0
    0.4580    1.5010   50.6900 C   0  0  0  0  0  0  0  0  0  0  0  0
    2.7030    7.4860   54.0130 C   0  0  0  0  0  0  0  0  0  0  0  0
    1.1220    6.4190   52.5430 C   0  0  0  0  0  0  0  0  0  0  0  0
    3.0670    4.7890   48.2110 C   0  0  0  0  0  0  0  0  0  0  0  0
    3.2800    6.5840   50.3660 C   0  0  0  0  0  0  0  0  0  0  0  0
    2.8550    1.1380   54.5270 C   0  0  0  0  0  0  0  0  0  0  0  0
    3.0860   -0.4600   52.7460 C   0  0  0  0  0  0  0  0  0  0  0  0
    3.0030    1.9230   52.2210 C   0  0  0  0  0  0  0  0  0  0  0  0
    1.0820    1.3040   49.4730 C   0  0  0  0  0  0  0  0  0  0  0  0
    2.3840    6.4480   53.1410 C   0  0  0  0  0  0  0  0  0  0  0  0
    2.9180    4.3600   49.5110 C   0  0  0  0  0  0  0  0  0  0  0  0
    3.0480    5.2240   50.5470 C   0  0  0  0  0  0  0  0  0  0  0  0
    3.0380   -0.1530   54.1070 C   0  0  0  0  0  0  0  0  0  0  0  0
    2.9050    3.1440   51.3610 C   0  0  0  0  0  0  0  0  0  0  0  0
    4.3430   -0.8330   56.0800 C   0  0  0  0  0  0  0  0  0  0  0  0
    2.3520    2.0340   49.1640 C   0  0  0  0  0  0  0  0  0  0  0  0
    3.4090    5.3660   52.8090 C   0  0  0  0  0  0  0  0  0  0  0  0
    2.7030    3.1280   50.0310 N   0  0  0  0  0  0  0  0  0  0  0  0
    3.0140    4.4950   51.6840 N   0  0  0  0  0  0  0  0  0  0  0  0
    3.2780   -1.0540   55.0640 O   0  0  0  0  0  0  0  0  0  0  0  0
  1  3  2  0
  1  4  1  0
  2  5  2  0
  2  6  1  0
  3 11  1  0
  4 12  2  0
  5 13  1  0
  6 14  2  0
  7  8  2  0
  7 15  1  0
  8 16  1  0
  9 17  2  0
  9 19  1  0
 10 18  1  0
 10 19  2  0
 11 20  2  0
 12 20  1  0
 13 21  2  0
 14 21  1  0
 15 22  2  0
 16 23  2  0
 17 24  1  0
 18 24  2  0
 19 25  1  0
 20 27  1  0
 21 28  1  0
 22 23  1  0
 22 29  1  0
 23 30  1  0
 24 31  1  0
 25 29  1  0
 25 30  2  0
 26 31  1  0
 27 29  1  0
 28 30  1  0
M  CHG  1  30   1
M  END
>  <washed_aromatic_smiles>  (70) 
COc1ccc(cc1)c2n(c3ccccc3[n+]2Cc4ccccc4)Cc5ccccc5

>  <name>  (70) 
neg162877

$$$$
neg298924
     RDKit          3D

 26 29  0  0  0  0  0  0  0  0999 V2000
    1.0780    1.4770   50.8830 C   0  0  0  0  0  0  0  0  0  0  0  0
    0.8570    1.2100   48.4720 C   0  0  0  0  0  0  0  0  0  0  0  0
   -0.0800    0.7420   51.0750 C   0  0  0  0  0  0  0  0  0  0  0  0
   -0.2460    0.4000   48.6730 C   0  0  0  0  0  0  0  0  0  0  0  0
    1.4300    1.8320   49.5800 C   0  0  0  0  0  0  0  0  0  0  0  0
   -0.7980    0.3230   49.9580 C   0  0  0  0  0  0  0  0  0  0  0  0
    2.9980    4.9720   49.5110 C   0  0  0  0  0  0  0  0  0  0  0  0
    2.1840    4.1020   50.1230 C   0  0  0  0  0  0  0  0  0  0  0  0
    1.6120    5.5620   51.8010 C   0  0  0  0  0  0  0  0  0  0  0  0
    3.1100    6.2790   50.0590 C   0  0  0  0  0  0  0  0  0  0  0  0
    3.1940    7.7290   53.4800 C   0  0  0  0  0  0  0  0  0  0  0  0
    5.1040   10.7320   54.3340 C   0  0  0  0  0  0  0  0  0  0  0  0
    5.2430    9.7450   55.4950 C   0  0  0  0  0  0  0  0  0  0  0  0
    4.2240    9.9890   53.3250 C   0  0  0  0  0  0  0  0  0  0  0  0
    3.9250    8.9990   55.4620 C   0  0  0  0  0  0  0  0  0  0  0  0
   -3.0480   -0.6120   49.1850 C   0  0  0  0  0  0  0  0  0  0  0  0
    2.6740    7.7750   52.0520 C   0  0  0  0  0  0  0  0  0  0  0  0
    3.5240    4.4220   48.3900 N   0  0  0  0  0  0  0  0  0  0  0  0
    3.0460    3.2100   48.3130 N   0  0  0  0  0  0  0  0  0  0  0  0
    1.4300    4.4150   51.2410 N   0  0  0  0  0  0  0  0  0  0  0  0
    2.2380    2.9900   49.3780 N   0  0  0  0  0  0  0  0  0  0  0  0
    2.5180    6.4950   51.3140 N   0  0  0  0  0  0  0  0  0  0  0  0
    3.6320    8.8700   54.0460 N   0  0  0  0  0  0  0  0  0  0  0  0
    3.5680    7.2150   49.4410 O   0  0  0  0  0  0  0  0  0  0  0  0
    3.1130    6.7090   54.1500 O   0  0  0  0  0  0  0  0  0  0  0  0
   -2.1330   -0.0240   50.1530 O   0  0  0  0  0  0  0  0  0  0  0  0
  1  3  2  0
  1  5  1  0
  2  4  1  0
  2  5  2  0
  3  6  1  0
  4  6  2  0
  5 21  1  0
  6 26  1  0
  7  8  2  0
  7 10  1  0
  7 18  1  0
  8 20  1  0
  8 21  1  0
  9 20  2  0
  9 22  1  0
 10 22  1  0
 10 24  2  0
 11 17  1  0
 11 23  1  0
 11 25  2  0
 12 13  1  0
 12 14  1  0
 13 15  1  0
 14 23  1  0
 15 23  1  0
 16 26  1  0
 17 22  1  0
 18 19  2  0
 19 21  1  0
M  END
>  <washed_aromatic_smiles>  (71) 
COc1ccc(cc1)n2c3c(c(=O)n(cn3)CC(=O)N4CCCC4)nn2

>  <name>  (71) 
neg298924

$$$$
neg74233
     RDKit          3D

 26 28  0  0  0  0  0  0  0  0999 V2000
    1.1700    3.0820   48.2250 C   0  0  0  0  0  0  0  0  0  0  0  0
    0.8510    1.9620   48.9650 C   0  0  0  0  0  0  0  0  0  0  0  0
    1.9220    2.9400   50.8880 C   0  0  0  0  0  0  0  0  0  0  0  0
    2.1140    4.1310   50.2170 C   0  0  0  0  0  0  0  0  0  0  0  0
    1.8810    4.1010   48.8460 C   0  0  0  0  0  0  0  0  0  0  0  0
    1.2530    1.8750   50.3000 C   0  0  0  0  0  0  0  0  0  0  0  0
    2.6030    5.2980   50.9400 C   0  0  0  0  0  0  0  0  0  0  0  0
    3.6520    9.2880   53.6870 C   0  0  0  0  0  0  0  0  0  0  0  0
    3.8610    8.0630   54.5660 C   0  0  0  0  0  0  0  0  0  0  0  0
    2.2140    9.2540   53.1700 C   0  0  0  0  0  0  0  0  0  0  0  0
    3.5250    6.7650   53.8150 C   0  0  0  0  0  0  0  0  0  0  0  0
    1.9870    8.0170   52.3270 C   0  0  0  0  0  0  0  0  0  0  0  0
    1.8210    1.0750   53.6750 C   0  0  0  0  0  0  0  0  0  0  0  0
    1.9950   -1.1370   52.9090 C   0  0  0  0  0  0  0  0  0  0  0  0
    2.6960    0.7400   54.9000 C   0  0  0  0  0  0  0  0  0  0  0  0
    3.1010   -1.2110   53.9110 C   0  0  0  0  0  0  0  0  0  0  0  0
    2.1930    6.7290   53.0640 C   0  0  0  0  0  0  0  0  0  0  0  0
    3.8730    4.1280   47.8700 C   0  0  0  0  0  0  0  0  0  0  0  0
    1.8960    0.2050   52.4540 N   0  0  0  0  0  0  0  0  0  0  0  0
    2.0170    5.5600   52.1700 N   0  0  0  0  0  0  0  0  0  0  0  0
    3.4930    6.0140   50.5100 O   0  0  0  0  0  0  0  0  0  0  0  0
   -0.4680    0.4880   51.6240 O   0  0  0  0  0  0  0  0  0  0  0  0
    1.1170   -0.6800   50.2180 O   0  0  0  0  0  0  0  0  0  0  0  0
    2.7380   -0.6440   55.1370 O   0  0  0  0  0  0  0  0  0  0  0  0
    2.6400    4.8590   48.0800 O   0  0  0  0  0  0  0  0  0  0  0  0
    0.8650    0.3710   51.1500 S   0  0  0  0  0  0  0  0  0  0  0  0
  1  2  2  0
  1  5  1  0
  2  6  1  0
  3  4  1  0
  3  6  2  0
  4  5  2  0
  4  7  1  0
  5 25  1  0
  6 26  1  0
  7 20  1  0
  7 21  2  0
  8  9  1  0
  8 10  1  0
  9 11  1  0
 10 12  1  0
 11 17  1  0
 12 17  1  0
 13 15  1  0
 13 19  1  0
 14 16  1  0
 14 19  1  0
 15 24  1  0
 16 24  1  0
 17 20  1  0
 18 25  1  0
 19 26  1  0
 22 26  2  0
 23 26  2  0
M  END
>  <washed_aromatic_smiles>  (72) 
COc1ccc(cc1C(=O)NC2CCCCC2)S(=O)(=O)N3CCOCC3

>  <name>  (72) 
neg74233

$$$$
neg18066
     RDKit          3D

 27 29  0  0  0  0  0  0  0  0999 V2000
    1.9960    9.2110   56.1710 C   0  0  0  0  0  0  0  0  0  0  0  0
    3.3340    9.4220   56.0320 C   0  0  0  0  0  0  0  0  0  0  0  0
    3.2930    8.3520   53.8740 C   0  0  0  0  0  0  0  0  0  0  0  0
    1.9340    8.0600   54.0060 C   0  0  0  0  0  0  0  0  0  0  0  0
    1.2830    8.5490   55.1680 C   0  0  0  0  0  0  0  0  0  0  0  0
    3.9760    8.9940   54.8870 C   0  0  0  0  0  0  0  0  0  0  0  0
    1.3340    7.2190   52.9680 C   0  0  0  0  0  0  0  0  0  0  0  0
    3.1340    3.8510   48.3560 C   0  0  0  0  0  0  0  0  0  0  0  0
    2.3690    2.8630   49.2610 C   0  0  0  0  0  0  0  0  0  0  0  0
    2.9220    5.3420   48.5970 C   0  0  0  0  0  0  0  0  0  0  0  0
    2.1000    3.2640   50.7220 C   0  0  0  0  0  0  0  0  0  0  0  0
    3.1710    5.9250   50.0130 C   0  0  0  0  0  0  0  0  0  0  0  0
    1.2430    4.5370   50.8110 C   0  0  0  0  0  0  0  0  0  0  0  0
    5.7770   11.8600   55.8080 C   0  0  0  0  0  0  0  0  0  0  0  0
    5.7260   11.5220   53.3450 C   0  0  0  0  0  0  0  0  0  0  0  0
    4.8030   13.0200   55.6240 C   0  0  0  0  0  0  0  0  0  0  0  0
    4.8390   12.7760   53.2980 C   0  0  0  0  0  0  0  0  0  0  0  0
    1.9440    5.8650   50.9410 C   0  0  0  0  0  0  0  0  0  0  0  0
   -0.5980    8.3720   56.8570 C   0  0  0  0  0  0  0  0  0  0  0  0
    5.8180   10.9050   54.6790 N   0  0  0  0  0  0  0  0  0  0  0  0
    2.1750    6.3110   52.3170 N   0  0  0  0  0  0  0  0  0  0  0  0
    0.1540    7.2890   52.6330 O   0  0  0  0  0  0  0  0  0  0  0  0
    6.1190    8.8400   56.1950 O   0  0  0  0  0  0  0  0  0  0  0  0
    6.2980    8.5740   53.7980 O   0  0  0  0  0  0  0  0  0  0  0  0
    5.0470   13.6560   54.3880 O   0  0  0  0  0  0  0  0  0  0  0  0
   -0.0400    8.3080   55.4460 O   0  0  0  0  0  0  0  0  0  0  0  0
    5.6960    9.2450   54.8920 S   0  0  0  0  0  0  0  0  0  0  0  0
  1  2  2  0
  1  5  1  0
  2  6  1  0
  3  4  1  0
  3  6  2  0
  4  5  2  0
  4  7  1  0
  5 26  1  0
  6 27  1  0
  7 21  1  0
  7 22  2  0
  8  9  1  0
  8 10  1  0
  9 11  1  0
 10 12  1  0
 11 13  1  0
 12 18  1  0
 13 18  1  0
 14 16  1  0
 14 20  1  0
 15 17  1  0
 15 20  1  0
 16 25  1  0
 17 25  1  0
 18 21  1  0
 19 26  1  0
 20 27  1  0
 23 27  2  0
 24 27  2  0
M  END
>  <washed_aromatic_smiles>  (73) 
COc1ccc(cc1C(=O)NC2CCCCCC2)S(=O)(=O)N3CCOCC3

>  <name>  (73) 
neg18066

$$$$
neg165642
     RDKit          3D

 28 30  0  0  0  0  0  0  0  0999 V2000
    3.3410    1.9050   52.7270 C   0  0  0  0  0  0  0  0  0  0  0  0
    3.3750    1.2040   53.9170 C   0  0  0  0  0  0  0  0  0  0  0  0
    3.6910    9.4210   55.9760 C   0  0  0  0  0  0  0  0  0  0  0  0
    2.6220    9.3070   56.8590 C   0  0  0  0  0  0  0  0  0  0  0  0
    1.2480    0.9850   52.1530 C   0  0  0  0  0  0  0  0  0  0  0  0
    1.1790    8.6710   55.0330 C   0  0  0  0  0  0  0  0  0  0  0  0
    2.2160    1.9670   51.9170 C   0  0  0  0  0  0  0  0  0  0  0  0
    2.2220    8.8200   54.1380 C   0  0  0  0  0  0  0  0  0  0  0  0
    3.4820    9.1930   54.6140 C   0  0  0  0  0  0  0  0  0  0  0  0
    2.4280    0.2830   54.1890 C   0  0  0  0  0  0  0  0  0  0  0  0
    1.4770    0.0990   53.2100 C   0  0  0  0  0  0  0  0  0  0  0  0
    1.3560    8.9540   56.3880 C   0  0  0  0  0  0  0  0  0  0  0  0
    2.0230    3.0760   50.9640 C   0  0  0  0  0  0  0  0  0  0  0  0
    3.1730    5.0650   52.1490 C   0  0  0  0  0  0  0  0  0  0  0  0
    1.2730    5.4520   50.7540 C   0  0  0  0  0  0  0  0  0  0  0  0
    2.9650    6.4270   52.8480 C   0  0  0  0  0  0  0  0  0  0  0  0
    0.8980    6.5760   51.7410 C   0  0  0  0  0  0  0  0  0  0  0  0
    5.8550    9.7150   53.9840 C   0  0  0  0  0  0  0  0  0  0  0  0
    3.9630   -0.7270   55.9370 C   0  0  0  0  0  0  0  0  0  0  0  0
    2.3650   -1.6710   52.2330 C   0  0  0  0  0  0  0  0  0  0  0  0
    1.9330    8.6420   52.6660 C   0  0  0  0  0  0  0  0  0  0  0  0
    2.0490    4.4210   51.4180 N   0  0  0  0  0  0  0  0  0  0  0  0
    2.1210    7.3020   52.0810 N   0  0  0  0  0  0  0  0  0  0  0  0
    1.7180    2.8650   49.7920 O   0  0  0  0  0  0  0  0  0  0  0  0
    4.4990    9.3500   53.6940 O   0  0  0  0  0  0  0  0  0  0  0  0
    2.6430   -0.5900   55.2450 O   0  0  0  0  0  0  0  0  0  0  0  0
    1.2450   -1.1540   53.0270 O   0  0  0  0  0  0  0  0  0  0  0  0
   -0.2050    8.7810   57.4880 Br  0  0  0  0  0  0  0  0  0  0  0  0
  1  2  2  0
  1  7  1  0
  2 10  1  0
  3  4  2  0
  3  9  1  0
  4 12  1  0
  5  7  2  0
  5 11  1  0
  6  8  1  0
  6 12  2  0
  7 13  1  0
  8  9  2  0
  8 21  1  0
  9 25  1  0
 10 11  2  0
 10 26  1  0
 11 27  1  0
 12 28  1  0
 13 22  1  0
 13 24  2  0
 14 16  1  0
 14 22  1  0
 15 17  1  0
 15 22  1  0
 16 23  1  0
 17 23  1  0
 18 25  1  0
 19 26  1  0
 20 27  1  0
 21 23  1  0
M  END
>  <washed_aromatic_smiles>  (74) 
COc1ccc(cc1CN2CCN(CC2)C(=O)c3ccc(c(c3)OC)OC)Br

>  <name>  (74) 
neg165642

$$$$
neg30603
     RDKit          3D

 29 31  0  0  0  0  0  0  0  0999 V2000
    0.2570    0.8680   47.6820 C   0  0  0  0  0  0  0  0  0  0  0  0
    0.6750    0.1240   48.7730 C   0  0  0  0  0  0  0  0  0  0  0  0
    4.7600    9.8090   57.2130 C   0  0  0  0  0  0  0  0  0  0  0  0
    5.1010   11.5750   55.6010 C   0  0  0  0  0  0  0  0  0  0  0  0
    0.4970    7.7620   53.3740 C   0  0  0  0  0  0  0  0  0  0  0  0
    0.8340    6.9070   52.3240 C   0  0  0  0  0  0  0  0  0  0  0  0
    5.1340   10.6700   58.2340 C   0  0  0  0  0  0  0  0  0  0  0  0
    5.4730   12.4400   56.6200 C   0  0  0  0  0  0  0  0  0  0  0  0
    0.5510    2.2210   47.6580 C   0  0  0  0  0  0  0  0  0  0  0  0
    3.1000    6.8000   53.1420 C   0  0  0  0  0  0  0  0  0  0  0  0
    1.3790    0.7550   49.7920 C   0  0  0  0  0  0  0  0  0  0  0  0
    4.7540   10.2420   55.8750 C   0  0  0  0  0  0  0  0  0  0  0  0
    2.7580    7.6710   54.1730 C   0  0  0  0  0  0  0  0  0  0  0  0
    1.4370    8.0800   54.3380 C   0  0  0  0  0  0  0  0  0  0  0  0
    2.1310    6.3870   52.2240 C   0  0  0  0  0  0  0  0  0  0  0  0
    5.5160   11.9810   57.9380 C   0  0  0  0  0  0  0  0  0  0  0  0
    1.2590    2.8000   48.7090 C   0  0  0  0  0  0  0  0  0  0  0  0
    4.3860    9.3530   54.7760 C   0  0  0  0  0  0  0  0  0  0  0  0
   -0.1280    8.5990   56.3200 C   0  0  0  0  0  0  0  0  0  0  0  0
    1.5750    4.2900   48.6920 C   0  0  0  0  0  0  0  0  0  0  0  0
    1.6620    2.0560   49.7430 N   0  0  0  0  0  0  0  0  0  0  0  0
    3.7270    8.1740   55.0660 N   0  0  0  0  0  0  0  0  0  0  0  0
    1.3260    4.9750   49.9630 N   0  0  0  0  0  0  0  0  0  0  0  0
    4.5970    9.6250   53.5970 O   0  0  0  0  0  0  0  0  0  0  0  0
    2.7670    3.9280   51.7180 O   0  0  0  0  0  0  0  0  0  0  0  0
    3.7240    5.6270   50.2840 O   0  0  0  0  0  0  0  0  0  0  0  0
    1.0950    8.7660   55.4900 O   0  0  0  0  0  0  0  0  0  0  0  0
    2.5960    5.1480   51.0080 S   0  0  0  0  0  0  0  0  0  0  0  0
    6.1220   13.0150   59.1950 Cl  0  0  0  0  0  0  0  0  0  0  0  0
  1  2  2  0
  1  9  1  0
  2 11  1  0
  3  7  2  0
  3 12  1  0
  4  8  1  0
  4 12  2  0
  5  6  2  0
  5 14  1  0
  6 15  1  0
  7 16  1  0
  8 16  2  0
  9 17  2  0
 10 13  1  0
 10 15  2  0
 11 21  2  0
 12 18  1  0
 13 14  2  0
 13 22  1  0
 14 27  1  0
 15 28  1  0
 16 29  1  0
 17 20  1  0
 17 21  1  0
 18 22  1  0
 18 24  2  0
 19 27  1  0
 20 23  1  0
 23 28  1  0
 25 28  2  0
 26 28  2  0
M  END
>  <washed_aromatic_smiles>  (75) 
COc1ccc(cc1NC(=O)c2ccc(cc2)Cl)S(=O)(=O)NCc3ccccn3

>  <name>  (75) 
neg30603

$$$$
neg17093
     RDKit          3D

 31 33  0  0  0  0  0  0  0  0999 V2000
    2.7670    1.1820   52.2430 C   0  0  0  0  0  0  0  0  0  0  0  0
    2.3740    0.6340   51.0360 C   0  0  0  0  0  0  0  0  0  0  0  0
    2.8860    2.5570   52.3650 C   0  0  0  0  0  0  0  0  0  0  0  0
    1.6370    8.6770   52.8660 C   0  0  0  0  0  0  0  0  0  0  0  0
    2.1010    1.4730   49.9660 C   0  0  0  0  0  0  0  0  0  0  0  0
    2.7370    9.5070   53.0200 C   0  0  0  0  0  0  0  0  0  0  0  0
    4.1270    7.6270   53.5070 C   0  0  0  0  0  0  0  0  0  0  0  0
    2.6620    3.4390   51.2960 C   0  0  0  0  0  0  0  0  0  0  0  0
    3.0980    6.7770   53.1180 C   0  0  0  0  0  0  0  0  0  0  0  0
    1.8180    7.3040   52.9720 C   0  0  0  0  0  0  0  0  0  0  0  0
    3.9560    9.0030   53.4480 C   0  0  0  0  0  0  0  0  0  0  0  0
    2.2440    2.8610   50.0660 C   0  0  0  0  0  0  0  0  0  0  0  0
    2.8780    4.9060   51.5120 C   0  0  0  0  0  0  0  0  0  0  0  0
    3.1000    9.2950   57.4850 C   0  0  0  0  0  0  0  0  0  0  0  0
    3.7270    8.0660   56.8530 C   0  0  0  0  0  0  0  0  0  0  0  0
    3.0350   10.4440   56.5250 C   0  0  0  0  0  0  0  0  0  0  0  0
    5.1880    8.0080   57.0300 C   0  0  0  0  0  0  0  0  0  0  0  0
    4.3960   11.0670   56.2390 C   0  0  0  0  0  0  0  0  0  0  0  0
    5.9150    9.1270   56.3670 C   0  0  0  0  0  0  0  0  0  0  0  0
   -0.2580    6.5900   52.0270 C   0  0  0  0  0  0  0  0  0  0  0  0
    3.4370    4.5390   48.1660 C   0  0  0  0  0  0  0  0  0  0  0  0
    5.2840   10.1650   55.5270 N   0  0  0  0  0  0  0  0  0  0  0  0
    3.3470    5.4150   52.7290 N   0  0  0  0  0  0  0  0  0  0  0  0
    2.7020    5.7540   50.6550 O   0  0  0  0  0  0  0  0  0  0  0  0
    1.5050    2.9090   47.5340 O   0  0  0  0  0  0  0  0  0  0  0  0
    0.9310    4.8090   48.9000 O   0  0  0  0  0  0  0  0  0  0  0  0
    6.5260    9.4870   53.4420 O   0  0  0  0  0  0  0  0  0  0  0  0
    5.0350   11.3890   53.3240 O   0  0  0  0  0  0  0  0  0  0  0  0
    0.7780    6.4360   52.9500 O   0  0  0  0  0  0  0  0  0  0  0  0
    1.8710    3.8000   48.5800 S   0  0  0  0  0  0  0  0  0  0  0  0
    5.3100   10.0950   53.8600 S   0  0  0  0  0  0  0  0  0  0  0  0
  1  2  2  0
  1  3  1  0
  2  5  1  0
  3  8  2  0
  4  6  2  0
  4 10  1  0
  5 12  2  0
  6 11  1  0
  7  9  1  0
  7 11  2  0
  8 12  1  0
  8 13  1  0
  9 10  2  0
  9 23  1  0
 10 29  1  0
 11 31  1  0
 12 30  1  0
 13 23  1  0
 13 24  2  0
 14 15  1  0
 14 16  1  0
 15 17  1  0
 16 18  1  0
 17 19  1  0
 18 22  1  0
 19 22  1  0
 20 29  1  0
 21 30  1  0
 22 31  1  0
 25 30  2  0
 26 30  2  0
 27 31  2  0
 28 31  2  0
M  END
>  <washed_aromatic_smiles>  (76) 
COc1ccc(cc1NC(=O)c2ccccc2S(=O)(=O)C)S(=O)(=O)N3CCCCCC3

>  <name>  (76) 
neg17093

$$$$
neg174315
     RDKit          3D

 32 34  0  0  0  0  0  0  0  0999 V2000
    0.1740    0.2020   48.0850 C   0  0  0  0  0  0  0  0  0  0  0  0
    0.5450    0.4400   46.7580 C   0  0  0  0  0  0  0  0  0  0  0  0
    0.3090    1.2160   49.0270 C   0  0  0  0  0  0  0  0  0  0  0  0
    3.7370    7.6830   54.4240 C   0  0  0  0  0  0  0  0  0  0  0  0
    4.0440    9.0300   54.3970 C   0  0  0  0  0  0  0  0  0  0  0  0
    0.9470    1.6820   46.3510 C   0  0  0  0  0  0  0  0  0  0  0  0
    2.1430    7.9330   52.6550 C   0  0  0  0  0  0  0  0  0  0  0  0
    2.8870    1.6220   50.3110 C   0  0  0  0  0  0  0  0  0  0  0  0
    2.9580    2.6930   52.8160 C   0  0  0  0  0  0  0  0  0  0  0  0
    2.9920    7.1210   53.3730 C   0  0  0  0  0  0  0  0  0  0  0  0
    0.8980    2.4310   48.6470 C   0  0  0  0  0  0  0  0  0  0  0  0
    2.3810    2.9050   50.5300 C   0  0  0  0  0  0  0  0  0  0  0  0
    2.6260    3.5320   51.7480 C   0  0  0  0  0  0  0  0  0  0  0  0
    3.4230    9.8160   53.4360 C   0  0  0  0  0  0  0  0  0  0  0  0
    2.2950    9.2960   52.7770 C   0  0  0  0  0  0  0  0  0  0  0  0
    3.2330    0.8210   51.3710 C   0  0  0  0  0  0  0  0  0  0  0  0
    3.1840    1.3340   52.6510 C   0  0  0  0  0  0  0  0  0  0  0  0
    1.2090    2.6160   47.3260 C   0  0  0  0  0  0  0  0  0  0  0  0
    1.4360    3.4090   49.5610 C   0  0  0  0  0  0  0  0  0  0  0  0
    3.2580    5.8100   52.8610 C   0  0  0  0  0  0  0  0  0  0  0  0
    5.2730   11.4970   53.4590 C   0  0  0  0  0  0  0  0  0  0  0  0
   -0.0840    9.6010   52.4220 C   0  0  0  0  0  0  0  0  0  0  0  0
    2.1970   -1.2090   51.0770 C   0  0  0  0  0  0  0  0  0  0  0  0
    3.0670    0.7670   55.0940 C   0  0  0  0  0  0  0  0  0  0  0  0
    2.3790    5.0450   51.9070 C   0  0  0  0  0  0  0  0  0  0  0  0
    1.0860    4.5750   49.4660 O   0  0  0  0  0  0  0  0  0  0  0  0
    4.3520    5.4010   53.0180 O   0  0  0  0  0  0  0  0  0  0  0  0
    3.9350   11.0630   53.1250 O   0  0  0  0  0  0  0  0  0  0  0  0
    1.2860   10.0660   52.2980 O   0  0  0  0  0  0  0  0  0  0  0  0
    3.4410   -0.4990   51.1620 O   0  0  0  0  0  0  0  0  0  0  0  0
    3.2700    0.4570   53.7060 O   0  0  0  0  0  0  0  0  0  0  0  0
    2.0090    3.6320   47.0860 F   0  0  0  0  0  0  0  0  0  0  0  0
  1  2  2  0
  1  3  1  0
  2  6  1  0
  3 11  2  0
  4  5  2  0
  4 10  1  0
  5 14  1  0
  6 18  2  0
  7 10  2  0
  7 15  1  0
  8 12  2  0
  8 16  1  0
  9 13  2  0
  9 17  1  0
 10 20  1  0
 11 18  1  0
 11 19  1  0
 12 13  1  0
 12 19  1  0
 13 25  1  0
 14 15  2  0
 14 28  1  0
 15 29  1  0
 16 17  2  0
 16 30  1  0
 17 31  1  0
 18 32  1  0
 19 26  2  0
 20 25  1  0
 20 27  2  0
 21 28  1  0
 22 29  1  0
 23 30  1  0
 24 31  1  0
M  END
>  <washed_aromatic_smiles>  (77) 
COc1ccc(cc1OC)C(=O)Cc2cc(c(cc2C(=O)c3ccccc3F)OC)OC

>  <name>  (77) 
neg174315

$$$$
neg69718
     RDKit          3D

 28 30  0  0  0  0  0  0  0  0999 V2000
    1.3000    4.4770   49.3640 C   0  0  0  0  0  0  0  0  0  0  0  0
    1.2200    3.3110   48.6170 C   0  0  0  0  0  0  0  0  0  0  0  0
    2.3480    3.2850   51.1750 C   0  0  0  0  0  0  0  0  0  0  0  0
    1.8240    4.4850   50.6660 C   0  0  0  0  0  0  0  0  0  0  0  0
    1.6180    2.1070   49.1860 C   0  0  0  0  0  0  0  0  0  0  0  0
    2.2190    2.0990   50.4490 C   0  0  0  0  0  0  0  0  0  0  0  0
    3.0700    7.1010   53.1160 C   0  0  0  0  0  0  0  0  0  0  0  0
    4.0880    9.1260   53.7470 C   0  0  0  0  0  0  0  0  0  0  0  0
    1.7690    5.7080   51.4770 C   0  0  0  0  0  0  0  0  0  0  0  0
    4.9660   11.0460   58.7090 C   0  0  0  0  0  0  0  0  0  0  0  0
    5.6610   12.3940   58.4330 C   0  0  0  0  0  0  0  0  0  0  0  0
    4.6700   10.1070   57.5460 C   0  0  0  0  0  0  0  0  0  0  0  0
    5.5390   13.1030   57.0710 C   0  0  0  0  0  0  0  0  0  0  0  0
    4.0170   10.8170   56.3610 C   0  0  0  0  0  0  0  0  0  0  0  0
    5.8440   12.3840   55.7440 C   0  0  0  0  0  0  0  0  0  0  0  0
    0.6530    0.7280   47.3080 C   0  0  0  0  0  0  0  0  0  0  0  0
    3.1470    0.6940   52.2970 C   0  0  0  0  0  0  0  0  0  0  0  0
    3.5200    7.0460   54.3290 N   0  0  0  0  0  0  0  0  0  0  0  0
    4.1420    8.2170   54.6780 N   0  0  0  0  0  0  0  0  0  0  0  0
    5.0440   11.1960   55.3890 N   0  0  0  0  0  0  0  0  0  0  0  0
    2.7740    5.9220   52.3920 N   0  0  0  0  0  0  0  0  0  0  0  0
    0.8510    6.5160   51.4290 O   0  0  0  0  0  0  0  0  0  0  0  0
    6.2880   10.5050   53.3030 O   0  0  0  0  0  0  0  0  0  0  0  0
    4.2100   11.6840   53.0640 O   0  0  0  0  0  0  0  0  0  0  0  0
    1.3900    0.9110   48.5420 O   0  0  0  0  0  0  0  0  0  0  0  0
    2.6540    0.8860   50.9560 O   0  0  0  0  0  0  0  0  0  0  0  0
    3.1280    8.6490   52.4110 S   0  0  0  0  0  0  0  0  0  0  0  0
    4.9660   10.7220   53.7850 S   0  0  0  0  0  0  0  0  0  0  0  0
  1  2  2  0
  1  4  1  0
  2  5  1  0
  3  4  2  0
  3  6  1  0
  4  9  1  0
  5  6  2  0
  5 25  1  0
  6 26  1  0
  7 18  2  0
  7 21  1  0
  7 27  1  0
  8 19  2  0
  8 27  1  0
  8 28  1  0
  9 21  1  0
  9 22  2  0
 10 11  1  0
 10 12  1  0
 11 13  1  0
 12 14  1  0
 13 15  1  0
 14 20  1  0
 15 20  1  0
 16 25  1  0
 17 26  1  0
 18 19  1  0
 20 28  1  0
 23 28  2  0
 24 28  2  0
M  END
>  <washed_aromatic_smiles>  (78) 
COc1ccc(cc1OC)C(=O)Nc2nnc(s2)S(=O)(=O)N3CCCCCC3

>  <name>  (78) 
neg69718

$$$$
neg124743
     RDKit          3D

 25 27  0  0  0  0  0  0  0  0999 V2000
    3.9410    7.4430   55.7410 C   0  0  0  0  0  0  0  0  0  0  0  0
    3.4310    8.6780   56.0250 C   0  0  0  0  0  0  0  0  0  0  0  0
    1.2020    2.4690   48.0800 C   0  0  0  0  0  0  0  0  0  0  0  0
    3.4080    6.7280   54.6740 C   0  0  0  0  0  0  0  0  0  0  0  0
    0.3410    1.3980   48.1580 C   0  0  0  0  0  0  0  0  0  0  0  0
    2.3820    9.1410   55.2620 C   0  0  0  0  0  0  0  0  0  0  0  0
    1.7480    2.2330   50.4350 C   0  0  0  0  0  0  0  0  0  0  0  0
    1.8430    2.9320   49.2280 C   0  0  0  0  0  0  0  0  0  0  0  0
    2.4430    7.2170   53.8170 C   0  0  0  0  0  0  0  0  0  0  0  0
    0.0890    0.8410   49.4100 C   0  0  0  0  0  0  0  0  0  0  0  0
    0.8510    1.1820   50.5270 C   0  0  0  0  0  0  0  0  0  0  0  0
    1.8510    8.4360   54.1630 C   0  0  0  0  0  0  0  0  0  0  0  0
    2.6240    4.1300   49.1150 C   0  0  0  0  0  0  0  0  0  0  0  0
    0.9740    6.3880   51.8080 C   0  0  0  0  0  0  0  0  0  0  0  0
    3.3090    5.6870   52.0700 C   0  0  0  0  0  0  0  0  0  0  0  0
    1.0150    5.3320   50.6720 C   0  0  0  0  0  0  0  0  0  0  0  0
    3.3850    5.9130   50.5610 C   0  0  0  0  0  0  0  0  0  0  0  0
   -1.8210   -0.5040   48.5820 C   0  0  0  0  0  0  0  0  0  0  0  0
    1.7090    0.3020   52.6930 C   0  0  0  0  0  0  0  0  0  0  0  0
    2.1610    6.3820   52.6790 N   0  0  0  0  0  0  0  0  0  0  0  0
    2.2930    5.2240   49.9220 N   0  0  0  0  0  0  0  0  0  0  0  0
   -0.9940    0.0680   49.6050 O   0  0  0  0  0  0  0  0  0  0  0  0
    0.6650    0.4880   51.7100 O   0  0  0  0  0  0  0  0  0  0  0  0
    3.8560    4.2000   47.9940 S   0  0  0  0  0  0  0  0  0  0  0  0
    0.4830    9.0090   53.2690 Cl  0  0  0  0  0  0  0  0  0  0  0  0
  1  2  2  0
  1  4  1  0
  2  6  1  0
  3  5  2  0
  3  8  1  0
  4  9  2  0
  5 10  1  0
  6 12  2  0
  7  8  2  0
  7 11  1  0
  8 13  1  0
  9 12  1  0
  9 20  1  0
 10 11  2  0
 10 22  1  0
 11 23  1  0
 12 25  1  0
 13 21  1  0
 13 24  2  0
 14 16  1  0
 14 20  1  0
 15 17  1  0
 15 20  1  0
 16 21  1  0
 17 21  1  0
 18 22  1  0
 19 23  1  0
M  END
>  <washed_aromatic_smiles>  (79) 
COc1ccc(cc1OC)C(=S)N2CCN(CC2)c3ccccc3Cl

>  <name>  (79) 
neg124743

$$$$
neg224129
     RDKit          3D

 25 26  0  0  0  0  0  0  0  0999 V2000
    1.1340    2.0390   48.3370 C   0  0  0  0  0  0  0  0  0  0  0  0
    1.3310    3.4070   48.2020 C   0  0  0  0  0  0  0  0  0  0  0  0
    3.8430    8.0000   55.2080 C   0  0  0  0  0  0  0  0  0  0  0  0
    1.4850    1.4030   49.5230 C   0  0  0  0  0  0  0  0  0  0  0  0
    1.8420    4.1460   49.2550 C   0  0  0  0  0  0  0  0  0  0  0  0
    4.4130    8.7790   56.2070 C   0  0  0  0  0  0  0  0  0  0  0  0
    4.0970    9.7990   53.6280 C   0  0  0  0  0  0  0  0  0  0  0  0
    3.6350    8.5090   53.9200 C   0  0  0  0  0  0  0  0  0  0  0  0
    2.0240    2.1150   50.5980 C   0  0  0  0  0  0  0  0  0  0  0  0
    2.1540    3.5170   50.4660 C   0  0  0  0  0  0  0  0  0  0  0  0
    4.8080   10.0880   55.9250 C   0  0  0  0  0  0  0  0  0  0  0  0
    4.6810   10.5860   54.6160 C   0  0  0  0  0  0  0  0  0  0  0  0
    2.9040    7.7400   52.9250 C   0  0  0  0  0  0  0  0  0  0  0  0
    3.0130    6.3950   52.7590 C   0  0  0  0  0  0  0  0  0  0  0  0
    2.2100    5.6360   51.8190 C   0  0  0  0  0  0  0  0  0  0  0  0
    4.9680   10.7210   58.3290 C   0  0  0  0  0  0  0  0  0  0  0  0
    5.2330   13.0270   55.0640 C   0  0  0  0  0  0  0  0  0  0  0  0
    2.4170    1.2890   51.8260 C   0  0  0  0  0  0  0  0  0  0  0  0
    2.6220    4.3370   51.5360 N   0  0  0  0  0  0  0  0  0  0  0  0
    1.1800    6.0660   51.3100 O   0  0  0  0  0  0  0  0  0  0  0  0
    5.3120   10.8870   56.9340 O   0  0  0  0  0  0  0  0  0  0  0  0
    5.0850   11.8590   54.2260 O   0  0  0  0  0  0  0  0  0  0  0  0
    3.1860    0.2390   51.4880 F   0  0  0  0  0  0  0  0  0  0  0  0
    3.1080    1.9470   52.7570 F   0  0  0  0  0  0  0  0  0  0  0  0
    1.3420    0.7780   52.4470 F   0  0  0  0  0  0  0  0  0  0  0  0
  1  2  2  0
  1  4  1  0
  2  5  1  0
  3  6  2  0
  3  8  1  0
  4  9  2  0
  5 10  2  0
  6 11  1  0
  7  8  2  0
  7 12  1  0
  8 13  1  0
  9 10  1  0
  9 18  1  0
 10 19  1  0
 11 12  2  0
 11 21  1  0
 12 22  1  0
 13 14  2  0
 14 15  1  0
 15 19  1  0
 15 20  2  0
 16 21  1  0
 17 22  1  0
 18 23  1  0
 18 24  1  0
 18 25  1  0
M  END
>  <washed_aromatic_smiles>  (80) 
COc1ccc(cc1OC)/C=C/C(=O)Nc2ccccc2C(F)(F)F

>  <name>  (80) 
neg224129

$$$$
neg39394
     RDKit          3D

 27 29  0  0  0  0  0  0  0  0999 V2000
    4.4010   10.5960   57.8780 C   0  0  0  0  0  0  0  0  0  0  0  0
    4.8260    9.2590   57.9350 C   0  0  0  0  0  0  0  0  0  0  0  0
    2.1290    3.5220   48.7460 C   0  0  0  0  0  0  0  0  0  0  0  0
    2.3200    2.7430   51.0380 C   0  0  0  0  0  0  0  0  0  0  0  0
    2.4000    4.8150   49.1690 C   0  0  0  0  0  0  0  0  0  0  0  0
    2.5690    4.0340   51.4600 C   0  0  0  0  0  0  0  0  0  0  0  0
    3.2700   10.6470   57.1150 C   0  0  0  0  0  0  0  0  0  0  0  0
    3.9500    8.5070   57.2070 C   0  0  0  0  0  0  0  0  0  0  0  0
    2.0530    2.5010   49.6970 C   0  0  0  0  0  0  0  0  0  0  0  0
    2.5700    5.0810   50.5320 C   0  0  0  0  0  0  0  0  0  0  0  0
    0.6320    8.7450   56.1010 C   0  0  0  0  0  0  0  0  0  0  0  0
    2.1350    8.8040   54.5490 C   0  0  0  0  0  0  0  0  0  0  0  0
    0.8030    0.7540   48.4600 C   0  0  0  0  0  0  0  0  0  0  0  0
    3.0390    6.9810   52.1360 C   0  0  0  0  0  0  0  0  0  0  0  0
    0.4860   -0.7050   48.5760 C   0  0  0  0  0  0  0  0  0  0  0  0
   -1.1640    7.9900   57.8520 C   0  0  0  0  0  0  0  0  0  0  0  0
    0.0300    8.8730   57.4740 C   0  0  0  0  0  0  0  0  0  0  0  0
    3.1420    8.4890   52.1960 C   0  0  0  0  0  0  0  0  0  0  0  0
    0.0620    8.3870   55.0030 N   0  0  0  0  0  0  0  0  0  0  0  0
    1.0060    8.4140   54.0110 N   0  0  0  0  0  0  0  0  0  0  0  0
    3.0050    9.3690   56.7300 N   0  0  0  0  0  0  0  0  0  0  0  0
    1.9320    8.9890   55.8380 N   0  0  0  0  0  0  0  0  0  0  0  0
    1.6940    1.1810   49.3980 N   0  0  0  0  0  0  0  0  0  0  0  0
    2.7020    6.4470   50.9120 N   0  0  0  0  0  0  0  0  0  0  0  0
    0.3100    1.4910   47.6270 O   0  0  0  0  0  0  0  0  0  0  0  0
    3.3180    6.2900   53.0980 O   0  0  0  0  0  0  0  0  0  0  0  0
    3.6820    9.1100   53.8030 S   0  0  0  0  0  0  0  0  0  0  0  0
  1  2  1  0
  1  7  2  0
  2  8  2  0
  3  5  2  0
  3  9  1  0
  4  6  1  0
  4  9  2  0
  5 10  1  0
  6 10  2  0
  7 21  1  0
  8 21  1  0
  9 23  1  0
 10 24  1  0
 11 17  1  0
 11 19  2  0
 11 22  1  0
 12 20  2  0
 12 22  1  0
 12 27  1  0
 13 15  1  0
 13 23  1  0
 13 25  2  0
 14 18  1  0
 14 24  1  0
 14 26  2  0
 16 17  1  0
 18 27  1  0
 19 20  1  0
 21 22  1  0
M  END
>  <washed_aromatic_smiles>  (81) 
CCc1nnc(n1n2cccc2)SCC(=O)Nc3ccc(cc3)NC(=O)C

>  <name>  (81) 
neg39394

$$$$
neg320895
     RDKit          3D

 27 29  0  0  0  0  0  0  0  0999 V2000
   -0.6160   -0.0380   48.9880 C   0  0  0  0  0  0  0  0  0  0  0  0
    0.5360   -0.7210   48.6630 C   0  0  0  0  0  0  0  0  0  0  0  0
   -0.7840    0.4450   50.2910 C   0  0  0  0  0  0  0  0  0  0  0  0
    2.4970    2.3470   50.6380 C   0  0  0  0  0  0  0  0  0  0  0  0
    2.9930    2.9540   52.8870 C   0  0  0  0  0  0  0  0  0  0  0  0
    1.4470   -0.9990   49.6440 C   0  0  0  0  0  0  0  0  0  0  0  0
    0.2130    0.2620   51.2410 C   0  0  0  0  0  0  0  0  0  0  0  0
    2.3070    3.6950   50.3460 C   0  0  0  0  0  0  0  0  0  0  0  0
    3.0460    4.2660   52.5300 C   0  0  0  0  0  0  0  0  0  0  0  0
    2.7960    1.9430   51.9780 C   0  0  0  0  0  0  0  0  0  0  0  0
    1.3490   -0.4610   50.8950 C   0  0  0  0  0  0  0  0  0  0  0  0
    2.5480    4.6740   51.3220 C   0  0  0  0  0  0  0  0  0  0  0  0
    4.0140    9.7100   54.4900 C   0  0  0  0  0  0  0  0  0  0  0  0
    2.8210    7.9750   53.2500 C   0  0  0  0  0  0  0  0  0  0  0  0
    5.3040   11.8590   55.1110 C   0  0  0  0  0  0  0  0  0  0  0  0
    4.6420   10.5520   55.5860 C   0  0  0  0  0  0  0  0  0  0  0  0
    4.1460    9.9160   53.2380 N   0  0  0  0  0  0  0  0  0  0  0  0
    3.4450    8.9540   52.5220 N   0  0  0  0  0  0  0  0  0  0  0  0
    2.9100    0.7700   52.5560 N   0  0  0  0  0  0  0  0  0  0  0  0
    2.2210    6.9290   52.7980 N   0  0  0  0  0  0  0  0  0  0  0  0
    3.9380   -0.7240   50.9390 O   0  0  0  0  0  0  0  0  0  0  0  0
    2.6530   -1.6530   52.8040 O   0  0  0  0  0  0  0  0  0  0  0  0
    0.6930    6.3660   50.9230 O   0  0  0  0  0  0  0  0  0  0  0  0
    3.0190    7.0110   50.4030 O   0  0  0  0  0  0  0  0  0  0  0  0
    3.0310    8.3500   54.9190 S   0  0  0  0  0  0  0  0  0  0  0  0
    2.8270   -0.6150   51.8390 S   0  0  2  0  0  0  0  0  0  0  0  0
    2.0810    6.3630   51.2670 S   0  0  0  0  0  0  0  0  0  0  0  0
  1  2  2  0
  1  3  1  0
  2  6  1  0
  3  7  2  0
  4  8  2  0
  4 10  1  0
  5  9  1  0
  5 10  2  0
  6 11  2  0
  7 11  1  0
  8 12  1  0
  9 12  2  0
 10 19  1  0
 11 26  1  0
 12 27  1  0
 13 16  1  0
 13 17  2  0
 13 25  1  0
 14 18  1  0
 14 20  2  0
 14 25  1  0
 15 16  1  0
 17 18  1  0
 19 26  2  0
 20 27  1  0
 21 26  2  0
 26 22  1  1
 23 27  2  0
 24 27  2  0
M  CHG  1  22  -1
M  END
>  <washed_aromatic_smiles>  (82) 
CCc1nnc(s1)NS(=O)(=O)c2ccc(cc2)NS(=O)(=O)c3ccccc3

>  <name>  (82) 
neg320895

$$$$
neg292022
     RDKit          3D

 27 29  0  0  0  0  0  0  0  0999 V2000
    4.2640   10.4250   53.7670 C   0  0  0  0  0  0  0  0  0  0  0  0
    4.9830   11.0180   56.4010 C   0  0  0  0  0  0  0  0  0  0  0  0
    4.1710    9.4190   54.7380 C   0  0  0  0  0  0  0  0  0  0  0  0
    4.5950    9.7260   56.0500 C   0  0  0  0  0  0  0  0  0  0  0  0
    4.6120   11.7170   54.1360 C   0  0  0  0  0  0  0  0  0  0  0  0
    4.9560   12.0280   55.4690 C   0  0  0  0  0  0  0  0  0  0  0  0
    3.8430    7.1480   55.4430 C   0  0  0  0  0  0  0  0  0  0  0  0
    3.6610    8.0870   54.4660 C   0  0  0  0  0  0  0  0  0  0  0  0
    4.6600    8.7250   57.0750 C   0  0  0  0  0  0  0  0  0  0  0  0
    2.9220    7.7480   53.2230 C   0  0  0  0  0  0  0  0  0  0  0  0
    3.1160    3.9640   48.4630 C   0  0  0  0  0  0  0  0  0  0  0  0
    2.2920    3.1060   49.4340 C   0  0  0  0  0  0  0  0  0  0  0  0
    2.9040    5.4420   48.6770 C   0  0  0  0  0  0  0  0  0  0  0  0
    2.1560    3.5460   50.9050 C   0  0  0  0  0  0  0  0  0  0  0  0
    3.4030    6.0790   50.0000 C   0  0  0  0  0  0  0  0  0  0  0  0
    1.5160    4.9360   51.1840 C   0  0  0  0  0  0  0  0  0  0  0  0
    2.4290    6.1680   51.1920 C   0  0  0  0  0  0  0  0  0  0  0  0
    4.9880    4.9100   57.6530 C   0  0  0  0  0  0  0  0  0  0  0  0
    5.5600   13.5630   53.0460 C   0  0  0  0  0  0  0  0  0  0  0  0
    5.6350   13.6730   57.2520 C   0  0  0  0  0  0  0  0  0  0  0  0
    4.9370    6.4360   57.7760 C   0  0  0  0  0  0  0  0  0  0  0  0
    4.4510    7.4090   56.7060 N   0  0  0  0  0  0  0  0  0  0  0  0
    3.0740    6.5130   52.5420 N   0  0  0  0  0  0  0  0  0  0  0  0
    4.9180    8.9810   58.2610 O   0  0  0  0  0  0  0  0  0  0  0  0
    2.0990    8.5320   52.7580 O   0  0  0  0  0  0  0  0  0  0  0  0
    4.4960   12.6660   53.1710 O   0  0  0  0  0  0  0  0  0  0  0  0
    5.2210   13.3220   55.8960 O   0  0  0  0  0  0  0  0  0  0  0  0
  1  3  2  0
  1  5  1  0
  2  4  2  0
  2  6  1  0
  3  4  1  0
  3  8  1  0
  4  9  1  0
  5  6  2  0
  5 26  1  0
  6 27  1  0
  7  8  2  0
  7 22  1  0
  8 10  1  0
  9 22  1  0
  9 24  2  0
 10 23  1  0
 10 25  2  0
 11 12  1  0
 11 13  1  0
 12 14  1  0
 13 15  1  0
 14 16  1  0
 15 17  1  0
 16 17  1  0
 17 23  1  0
 18 21  1  0
 19 26  1  0
 20 27  1  0
 21 22  1  0
M  END
>  <washed_aromatic_smiles>  (83) 
CCn1cc(c2cc(c(cc2c1=O)OC)OC)C(=O)NC3CCCCCC3

>  <name>  (83) 
neg292022

$$$$
neg85163
     RDKit          3D

 38 40  0  0  1  0  0  0  0  0999 V2000
   -0.9780   -0.0630   48.8900 C   0  0  0  0  0  0  0  0  0  0  0  0
    5.2110    9.0300   59.0430 C   0  0  0  0  0  0  0  0  0  0  0  0
   -0.0330    0.4020   47.9990 C   0  0  0  0  0  0  0  0  0  0  0  0
   -0.8380    0.2350   50.2440 C   0  0  0  0  0  0  0  0  0  0  0  0
    4.8850   10.2490   58.4580 C   0  0  0  0  0  0  0  0  0  0  0  0
    5.0920    7.8540   58.3170 C   0  0  0  0  0  0  0  0  0  0  0  0
   -0.0200    6.0510   52.3760 C   0  0  0  0  0  0  0  0  0  0  0  0
    1.0930    1.0220   48.4930 C   0  0  0  0  0  0  0  0  0  0  0  0
    0.3250    0.7940   50.7360 C   0  0  0  0  0  0  0  0  0  0  0  0
    4.4780   10.2960   57.1290 C   0  0  0  0  0  0  0  0  0  0  0  0
    4.6830    7.9010   56.9920 C   0  0  0  0  0  0  0  0  0  0  0  0
    0.6980    5.1570   51.6260 C   0  0  0  0  0  0  0  0  0  0  0  0
    0.5540    7.2440   52.7510 C   0  0  0  0  0  0  0  0  0  0  0  0
    2.5220    6.6490   51.5000 C   0  0  0  0  0  0  0  0  0  0  0  0
    1.3460    1.1000   49.8550 C   0  0  0  0  0  0  0  0  0  0  0  0
    4.4080    9.1230   56.3770 C   0  0  0  0  0  0  0  0  0  0  0  0
    1.9270    5.4590   51.1200 C   0  0  0  0  0  0  0  0  0  0  0  0
    1.8570    7.5250   52.3620 C   0  0  0  0  0  0  0  0  0  0  0  0
    3.5620    0.4330   51.0250 C   0  0  0  0  0  0  0  0  0  0  0  0
    5.0920   10.1850   54.2080 C   0  0  0  0  0  0  0  0  0  0  0  0
    3.0650    2.8280   52.3350 C   0  0  0  0  0  0  0  0  0  0  0  0
    1.8040    8.6620   55.2420 C   0  0  0  0  0  0  0  0  0  0  0  0
    2.1160   -0.4730   53.0400 C   0  0  0  0  0  0  0  0  0  0  0  0
    6.6990    8.4570   54.0180 C   0  0  0  0  0  0  0  0  0  0  0  0
    2.7160    1.5250   50.3120 C   0  0  2  0  0  0  0  0  0  0  0  0
    4.1530    9.1540   54.8750 C   0  0  2  0  0  0  0  0  0  0  0  0
    2.6700    2.8440   50.9350 N   0  0  0  0  0  0  0  0  0  0  0  0
    2.7800    9.2500   54.3870 N   0  0  0  0  0  0  0  0  0  0  0  0
    4.7160    0.2180   50.6680 O   0  0  0  0  0  0  0  0  0  0  0  0
    4.8470   11.3890   54.1380 O   0  0  0  0  0  0  0  0  0  0  0  0
    1.6020    4.0460   48.9610 O   0  0  0  0  0  0  0  0  0  0  0  0
    3.8380    4.6940   49.5530 O   0  0  0  0  0  0  0  0  0  0  0  0
    3.7570    9.2250   52.0770 O   0  0  0  0  0  0  0  0  0  0  0  0
    1.4960   10.0280   52.3790 O   0  0  0  0  0  0  0  0  0  0  0  0
    3.2040   -0.2810   52.1180 O   0  0  0  0  0  0  0  0  0  0  0  0
    6.2550    9.7670   53.6780 O   0  0  0  0  0  0  0  0  0  0  0  0
    2.5650    4.2490   49.9900 S   0  0  0  0  0  0  0  0  0  0  0  0
    2.5170    9.1250   52.7470 S   0  0  0  0  0  0  0  0  0  0  0  0
  1  3  2  0
  1  4  1  0
  2  5  2  0
  2  6  1  0
  3  8  1  0
  4  9  2  0
  5 10  1  0
  6 11  2  0
  7 12  2  0
  7 13  1  0
  8 15  2  0
  9 15  1  0
 10 16  2  0
 11 16  1  0
 12 17  1  0
 13 18  2  0
 14 17  2  0
 14 18  1  0
 15 25  1  0
 16 26  1  0
 17 37  1  0
 18 38  1  0
 19 25  1  0
 19 29  2  0
 19 35  1  0
 20 26  1  0
 20 30  2  0
 20 36  1  0
 21 27  1  0
 22 28  1  0
 23 35  1  0
 24 36  1  0
 25 27  1  1
 26 28  1  1
 27 37  1  0
 28 38  1  0
 31 37  2  0
 32 37  2  0
 33 38  2  0
 34 38  2  0
M  END
>  <washed_aromatic_smiles>  (84) 
CN([C@H](c1ccccc1)C(=O)OC)S(=O)(=O)c2cccc(c2)S(=O)(=O)N(C)[C@H](c3ccccc3)C(=O)OC

>  <name>  (84) 
neg85163

$$$$
neg113859
     RDKit          3D

 25 26  0  0  0  0  0  0  0  0999 V2000
    0.7330    8.6430   55.5120 C   0  0  0  0  0  0  0  0  0  0  0  0
    1.7770    9.0930   56.3170 C   0  0  0  0  0  0  0  0  0  0  0  0
    1.3650    4.4060   49.3790 C   0  0  0  0  0  0  0  0  0  0  0  0
    0.9840    8.2440   54.2200 C   0  0  0  0  0  0  0  0  0  0  0  0
    3.0440    9.2560   55.7840 C   0  0  0  0  0  0  0  0  0  0  0  0
    1.2340    5.3640   50.3800 C   0  0  0  0  0  0  0  0  0  0  0  0
    2.0650    3.2310   49.6320 C   0  0  0  0  0  0  0  0  0  0  0  0
    2.6750    4.0840   51.8200 C   0  0  0  0  0  0  0  0  0  0  0  0
    2.2870    8.2590   53.7160 C   0  0  0  0  0  0  0  0  0  0  0  0
    3.3090    8.9060   54.4600 C   0  0  0  0  0  0  0  0  0  0  0  0
    1.9520    5.2330   51.5590 C   0  0  0  0  0  0  0  0  0  0  0  0
    2.6480    3.0550   50.8850 C   0  0  0  0  0  0  0  0  0  0  0  0
    2.4710    7.4690   52.5070 C   0  0  0  0  0  0  0  0  0  0  0  0
    2.9570    1.1700   52.3760 C   0  0  0  0  0  0  0  0  0  0  0  0
    2.5430   -0.8400   51.0300 C   0  0  0  0  0  0  0  0  0  0  0  0
    2.6170   -0.9430   53.5150 C   0  0  0  0  0  0  0  0  0  0  0  0
    4.7030    9.2440   53.9320 C   0  0  0  0  0  0  0  0  0  0  0  0
    1.8890    6.2210   52.5500 N   0  0  0  0  0  0  0  0  0  0  0  0
    2.8350   -0.1870   52.2980 N   0  0  0  0  0  0  0  0  0  0  0  0
    3.0610    7.8160   51.5090 O   0  0  0  0  0  0  0  0  0  0  0  0
    2.8670    1.7590   53.4460 O   0  0  0  0  0  0  0  0  0  0  0  0
    3.1370    1.8010   51.1780 O   0  0  0  0  0  0  0  0  0  0  0  0
    5.3030   10.2200   54.6440 F   0  0  0  0  0  0  0  0  0  0  0  0
    5.5350    8.2050   54.0030 F   0  0  0  0  0  0  0  0  0  0  0  0
    4.7030    9.7060   52.6860 F   0  0  0  0  0  0  0  0  0  0  0  0
  1  2  2  0
  1  4  1  0
  2  5  1  0
  3  6  2  0
  3  7  1  0
  4  9  2  0
  5 10  2  0
  6 11  1  0
  7 12  2  0
  8 11  2  0
  8 12  1  0
  9 10  1  0
  9 13  1  0
 10 17  1  0
 11 18  1  0
 12 22  1  0
 13 18  1  0
 13 20  2  0
 14 19  1  0
 14 21  2  0
 14 22  1  0
 15 19  1  0
 16 19  1  0
 17 23  1  0
 17 24  1  0
 17 25  1  0
M  END
>  <washed_aromatic_smiles>  (85) 
CN(C)C(=O)Oc1cccc(c1)NC(=O)c2ccccc2C(F)(F)F

>  <name>  (85) 
neg113859

$$$$
neg14252
     RDKit          3D

 32 34  0  0  0  0  0  0  0  0999 V2000
    1.8910    8.7430   53.2510 C   0  0  0  0  0  0  0  0  0  0  0  0
    3.9120    7.5330   53.7350 C   0  0  0  0  0  0  0  0  0  0  0  0
    1.3550    7.6220   52.6300 C   0  0  0  0  0  0  0  0  0  0  0  0
    3.3920    6.4050   53.1280 C   0  0  0  0  0  0  0  0  0  0  0  0
    1.5730    3.0700   47.5690 C   0  0  0  0  0  0  0  0  0  0  0  0
    0.8510    1.9930   47.9930 C   0  0  0  0  0  0  0  0  0  0  0  0
    1.3600    2.6350   50.2690 C   0  0  0  0  0  0  0  0  0  0  0  0
    3.1880    8.7160   53.7940 C   0  0  0  0  0  0  0  0  0  0  0  0
    1.9520    3.8220   49.8420 C   0  0  0  0  0  0  0  0  0  0  0  0
    2.1330    6.4690   52.5230 C   0  0  0  0  0  0  0  0  0  0  0  0
    2.1450    3.9390   48.4760 C   0  0  0  0  0  0  0  0  0  0  0  0
    0.7970    1.7330   49.3460 C   0  0  0  0  0  0  0  0  0  0  0  0
    3.8600    9.8580   54.3950 C   0  0  0  0  0  0  0  0  0  0  0  0
    2.4770    4.8520   50.7290 C   0  0  0  0  0  0  0  0  0  0  0  0
    3.1300   -0.4450   53.2870 C   0  0  0  0  0  0  0  0  0  0  0  0
    2.4660    0.7640   53.8540 C   0  0  0  0  0  0  0  0  0  0  0  0
    3.3470   -0.2540   51.7780 C   0  0  0  0  0  0  0  0  0  0  0  0
    1.0500    0.3490   53.7220 C   0  0  0  0  0  0  0  0  0  0  0  0
    2.1900   -0.9200   51.0710 C   0  0  0  0  0  0  0  0  0  0  0  0
    0.3600    0.3220   52.3610 C   0  0  0  0  0  0  0  0  0  0  0  0
    3.0740    9.1180   56.6330 C   0  0  0  0  0  0  0  0  0  0  0  0
    4.5310   11.1330   56.4300 C   0  0  0  0  0  0  0  0  0  0  0  0
    4.2100    3.8590   47.6560 C   0  0  0  0  0  0  0  0  0  0  0  0
    0.9410   -0.1830   51.1320 N   0  0  0  0  0  0  0  0  0  0  0  0
    1.6770    5.3940   51.7240 N   0  0  0  0  0  0  0  0  0  0  0  0
    3.8900    9.9830   55.7800 N   0  0  0  0  0  0  0  0  0  0  0  0
    4.4460   10.7010   53.7140 O   0  0  0  0  0  0  0  0  0  0  0  0
    3.6000    5.3180   50.5810 O   0  0  0  0  0  0  0  0  0  0  0  0
   -1.2600    0.3410   50.1000 O   0  0  0  0  0  0  0  0  0  0  0  0
    0.4200   -0.7680   48.7450 O   0  0  0  0  0  0  0  0  0  0  0  0
    3.1290    4.7140   48.0310 O   0  0  0  0  0  0  0  0  0  0  0  0
    0.1130    0.1680   49.7770 S   0  0  0  0  0  0  0  0  0  0  0  0
  1  3  2  0
  1  8  1  0
  2  4  1  0
  2  8  2  0
  3 10  1  0
  4 10  2  0
  5  6  2  0
  5 11  1  0
  6 12  1  0
  7  9  1  0
  7 12  2  0
  8 13  1  0
  9 11  2  0
  9 14  1  0
 10 25  1  0
 11 31  1  0
 12 32  1  0
 13 26  1  0
 13 27  2  0
 14 25  1  0
 14 28  2  0
 15 16  1  0
 15 17  1  0
 16 18  1  0
 17 19  1  0
 18 20  1  0
 19 24  1  0
 20 24  1  0
 21 26  1  0
 22 26  1  0
 23 31  1  0
 24 32  1  0
 29 32  2  0
 30 32  2  0
M  END
>  <washed_aromatic_smiles>  (86) 
CN(C)C(=O)c1ccc(cc1)NC(=O)c2cc(ccc2OC)S(=O)(=O)N3CCCCCC3

>  <name>  (86) 
neg14252

$$$$
neg251036
     RDKit          3D

 31 33  0  0  0  0  0  0  0  0999 V2000
    3.7420    6.5410   48.7980 C   0  0  0  0  0  0  0  0  0  0  0  0
    3.3690    9.3840   55.2440 C   0  0  0  0  0  0  0  0  0  0  0  0
   -0.2720    0.7160   47.4290 C   0  0  0  0  0  0  0  0  0  0  0  0
    3.3330    7.2350   49.9180 C   0  0  0  0  0  0  0  0  0  0  0  0
    3.1720    5.3420   48.4170 C   0  0  0  0  0  0  0  0  0  0  0  0
    2.1790    8.7390   54.9510 C   0  0  0  0  0  0  0  0  0  0  0  0
    4.5490    8.8960   54.7130 C   0  0  0  0  0  0  0  0  0  0  0  0
    0.8310    1.5440   47.3850 C   0  0  0  0  0  0  0  0  0  0  0  0
   -0.5970    0.0280   48.5890 C   0  0  0  0  0  0  0  0  0  0  0  0
    2.3480    6.7100   50.6930 C   0  0  0  0  0  0  0  0  0  0  0  0
    2.1080    4.8720   49.1440 C   0  0  0  0  0  0  0  0  0  0  0  0
    2.1640    7.6150   54.1420 C   0  0  0  0  0  0  0  0  0  0  0  0
    4.5390    7.7400   53.9400 C   0  0  0  0  0  0  0  0  0  0  0  0
    1.6390    1.6660   48.5000 C   0  0  0  0  0  0  0  0  0  0  0  0
    0.1590    0.2170   49.7340 C   0  0  0  0  0  0  0  0  0  0  0  0
    1.8160    5.4990   50.3320 C   0  0  0  0  0  0  0  0  0  0  0  0
    3.3550    7.0490   53.6420 C   0  0  0  0  0  0  0  0  0  0  0  0
    1.3060    1.0120   49.6830 C   0  0  0  0  0  0  0  0  0  0  0  0
    2.9030    3.0920   52.2700 C   0  0  0  0  0  0  0  0  0  0  0  0
    3.0060   -0.9420   54.1030 C   0  0  0  0  0  0  0  0  0  0  0  0
    1.0000    0.0550   53.3740 C   0  0  0  0  0  0  0  0  0  0  0  0
    1.3870    4.7040   51.4480 C   0  0  0  0  0  0  0  0  0  0  0  0
    3.3330    5.6050   52.9700 C   0  0  0  0  0  0  0  0  0  0  0  0
    3.0500    2.2530   51.0300 C   0  0  0  0  0  0  0  0  0  0  0  0
    2.1220    1.1200   50.8270 N   0  0  0  0  0  0  0  0  0  0  0  0
    2.6770    4.4220   52.1240 N   0  0  0  0  0  0  0  0  0  0  0  0
    2.3590   -0.2120   53.0370 N   0  0  0  0  0  0  0  0  0  0  0  0
    2.9230    2.5270   53.3500 O   0  0  0  0  0  0  0  0  0  0  0  0
    2.0680   -1.4320   50.8640 O   0  0  0  0  0  0  0  0  0  0  0  0
    4.1560   -0.3340   51.2510 O   0  0  0  0  0  0  0  0  0  0  0  0
    2.7490   -0.3260   51.4340 S   0  0  0  0  0  0  0  0  0  0  0  0
  1  4  2  0
  1  5  1  0
  2  6  2  0
  2  7  1  0
  3  8  2  0
  3  9  1  0
  4 10  1  0
  5 11  2  0
  6 12  1  0
  7 13  2  0
  8 14  1  0
  9 15  2  0
 10 16  2  0
 11 16  1  0
 12 17  2  0
 13 17  1  0
 14 18  2  0
 15 18  1  0
 16 22  1  0
 17 23  1  0
 18 25  1  0
 19 24  1  0
 19 26  1  0
 19 28  2  0
 20 27  1  0
 21 27  1  0
 22 26  1  0
 23 26  1  0
 24 25  1  0
 25 31  1  0
 27 31  1  0
 29 31  2  0
 30 31  2  0
M  END
>  <washed_aromatic_smiles>  (87) 
CN(C)S(=O)(=O)N(CC(=O)N(Cc1ccccc1)Cc2ccccc2)c3ccccc3

>  <name>  (87) 
neg251036

$$$$
neg173161
     RDKit          3D

 29 31  0  0  0  0  0  0  0  0999 V2000
   -0.0350   -0.2100   48.5770 C   0  0  0  0  0  0  0  0  0  0  0  0
    4.3470    9.3900   57.9120 C   0  0  0  0  0  0  0  0  0  0  0  0
    0.9480    0.0380   49.5270 C   0  0  0  0  0  0  0  0  0  0  0  0
   -0.2490    0.6890   47.5460 C   0  0  0  0  0  0  0  0  0  0  0  0
    4.7190    8.0980   57.5680 C   0  0  0  0  0  0  0  0  0  0  0  0
    3.3860   10.0400   57.1520 C   0  0  0  0  0  0  0  0  0  0  0  0
    1.7390    1.1750   49.4140 C   0  0  0  0  0  0  0  0  0  0  0  0
    0.5370    1.8190   47.4280 C   0  0  0  0  0  0  0  0  0  0  0  0
    4.1950    7.4990   56.4280 C   0  0  0  0  0  0  0  0  0  0  0  0
    2.8540    9.4250   56.0280 C   0  0  0  0  0  0  0  0  0  0  0  0
    1.5490    2.0540   48.3460 C   0  0  0  0  0  0  0  0  0  0  0  0
    3.3440    8.2070   55.5600 C   0  0  0  0  0  0  0  0  0  0  0  0
    2.9940    5.7130   52.4840 C   0  0  0  0  0  0  0  0  0  0  0  0
    1.1970    5.4220   51.0090 C   0  0  0  0  0  0  0  0  0  0  0  0
    3.3600    6.2510   50.1640 C   0  0  0  0  0  0  0  0  0  0  0  0
    1.5760    4.1680   50.2330 C   0  0  0  0  0  0  0  0  0  0  0  0
    3.0690    5.5180   48.8400 C   0  0  0  0  0  0  0  0  0  0  0  0
    5.6180    9.5490   53.8760 C   0  0  0  0  0  0  0  0  0  0  0  0
    4.4820   11.4410   53.0880 C   0  0  0  0  0  0  0  0  0  0  0  0
    2.4460    3.2470   48.1550 C   0  0  0  0  0  0  0  0  0  0  0  0
    3.5950    6.5920   53.5930 C   0  0  0  0  0  0  0  0  0  0  0  0
    2.4230    6.1320   51.3400 N   0  0  0  0  0  0  0  0  0  0  0  0
    2.0130    4.4650   48.8570 N   0  0  0  0  0  0  0  0  0  0  0  0
    2.9980    7.8040   54.1700 N   0  0  0  0  0  0  0  0  0  0  0  0
    4.2860   10.1090   53.6380 N   0  0  0  0  0  0  0  0  0  0  0  0
    3.1280    4.4990   52.6090 O   0  0  0  0  0  0  0  0  0  0  0  0
    3.4780    8.6440   51.7890 O   0  0  0  0  0  0  0  0  0  0  0  0
    1.7950    9.6860   53.0420 O   0  0  0  0  0  0  0  0  0  0  0  0
    3.0690    9.0850   53.0530 S   0  0  0  0  0  0  0  0  0  0  0  0
  1  3  2  0
  1  4  1  0
  2  5  2  0
  2  6  1  0
  3  7  1  0
  4  8  2  0
  5  9  1  0
  6 10  2  0
  7 11  2  0
  8 11  1  0
  9 12  2  0
 10 12  1  0
 11 20  1  0
 12 24  1  0
 13 21  1  0
 13 22  1  0
 13 26  2  0
 14 16  1  0
 14 22  1  0
 15 17  1  0
 15 22  1  0
 16 23  1  0
 17 23  1  0
 18 25  1  0
 19 25  1  0
 20 23  1  0
 21 24  1  0
 24 29  1  0
 25 29  1  0
 27 29  2  0
 28 29  2  0
M  CHG  1  23   1
M  END
>  <washed_aromatic_smiles>  (88) 
CN(C)S(=O)(=O)N(CC(=O)N1CCN(CC1)Cc2ccccc2)c3ccccc3

>  <name>  (88) 
neg173161

$$$$
neg106210
     RDKit          3D

 31 33  0  0  0  0  0  0  0  0999 V2000
    6.0250   -0.4440   59.2960 C   0  0  0  0  0  0  0  0  0  0  0  0
    5.7110   -1.3340   58.2770 C   0  0  0  0  0  0  0  0  0  0  0  0
    5.7740    0.9090   59.1360 C   0  0  0  0  0  0  0  0  0  0  0  0
    5.9270    7.2960   59.8500 C   0  0  0  0  0  0  0  0  0  0  0  0
    4.8840    7.3160   57.6880 C   0  0  0  0  0  0  0  0  0  0  0  0
    2.6910   -0.5690   52.5800 C   0  0  0  0  0  0  0  0  0  0  0  0
    2.8360    1.7730   53.1020 C   0  0  0  0  0  0  0  0  0  0  0  0
    5.0990   -0.8860   57.1160 C   0  0  0  0  0  0  0  0  0  0  0  0
    6.0190    5.9040   59.8050 C   0  0  0  0  0  0  0  0  0  0  0  0
    4.9640    5.9400   57.6440 C   0  0  0  0  0  0  0  0  0  0  0  0
    2.3450   -0.2650   51.2690 C   0  0  0  0  0  0  0  0  0  0  0  0
    2.5260    2.0920   51.7870 C   0  0  0  0  0  0  0  0  0  0  0  0
    2.9360    0.4470   53.5240 C   0  0  0  0  0  0  0  0  0  0  0  0
    5.3570    8.0260   58.7890 C   0  0  0  0  0  0  0  0  0  0  0  0
    5.1860    1.4050   57.9600 C   0  0  0  0  0  0  0  0  0  0  0  0
    5.5330    5.2090   58.6920 C   0  0  0  0  0  0  0  0  0  0  0  0
    4.7570    0.4660   56.9690 C   0  0  0  0  0  0  0  0  0  0  0  0
    2.2480    1.0680   50.8830 C   0  0  0  0  0  0  0  0  0  0  0  0
    3.2320    0.0800   54.9120 C   0  0  0  0  0  0  0  0  0  0  0  0
    5.0410    2.8500   57.7970 C   0  0  0  0  0  0  0  0  0  0  0  0
    5.2330    9.4840   58.7790 C   0  0  0  0  0  0  0  0  0  0  0  0
    1.9110    2.4490   48.8570 C   0  0  0  0  0  0  0  0  0  0  0  0
    0.9540    2.5790   47.7030 C   0  0  0  0  0  0  0  0  0  0  0  0
    5.6510    3.7680   58.6750 N   0  0  0  0  0  0  0  0  0  0  0  0
    3.9910    0.8760   55.7950 N   0  0  0  0  0  0  0  0  0  0  0  0
    2.8090   -0.9680   55.3340 O   0  0  0  0  0  0  0  0  0  0  0  0
    4.3520    3.2940   56.9100 O   0  0  0  0  0  0  0  0  0  0  0  0
    4.3580   10.0320   58.0570 O   0  0  0  0  0  0  0  0  0  0  0  0
    2.7580    3.2740   49.1020 O   0  0  0  0  0  0  0  0  0  0  0  0
    6.0100   10.1830   59.4670 O   0  0  0  0  0  0  0  0  0  0  0  0
    1.7670    1.3340   49.6110 O   0  0  0  0  0  0  0  0  0  0  0  0
  1  2  2  0
  1  3  1  0
  2  8  1  0
  3 15  2  0
  4  9  2  0
  4 14  1  0
  5 10  1  0
  5 14  2  0
  6 11  2  0
  6 13  1  0
  7 12  1  0
  7 13  2  0
  8 17  2  0
  9 16  1  0
 10 16  2  0
 11 18  1  0
 12 18  2  0
 13 19  1  0
 14 21  1  0
 15 17  1  0
 15 20  1  0
 16 24  1  0
 17 25  1  0
 18 31  1  0
 19 25  1  0
 19 26  2  0
 20 24  1  0
 20 27  2  0
 21 28  1  0
 21 30  2  0
 22 23  1  0
 22 29  2  0
 22 31  1  0
M  CHG  1  28  -1
M  END
>  <washed_aromatic_smiles>  (89) 
CC(=O)Oc1ccc(cc1)C(=O)Nc2ccccc2C(=O)Nc3ccc(cc3)C(=O)O

>  <name>  (89) 
neg106210

$$$$
neg88291
     RDKit          3D

 25 26  0  0  0  0  0  0  0  0999 V2000
    1.8870   -0.7740   50.2060 C   0  0  0  0  0  0  0  0  0  0  0  0
    2.8690    8.9060   53.2100 C   0  0  0  0  0  0  0  0  0  0  0  0
    3.1510   -0.6010   50.7210 C   0  0  0  0  0  0  0  0  0  0  0  0
    3.2930    8.5180   51.9660 C   0  0  0  0  0  0  0  0  0  0  0  0
    1.2490    1.3560   51.1190 C   0  0  0  0  0  0  0  0  0  0  0  0
    1.3850    7.0030   53.2460 C   0  0  0  0  0  0  0  0  0  0  0  0
    0.9650    0.2510   50.3180 C   0  0  0  0  0  0  0  0  0  0  0  0
    1.9060    8.1540   53.8670 C   0  0  0  0  0  0  0  0  0  0  0  0
    2.5170    1.5220   51.6350 C   0  0  0  0  0  0  0  0  0  0  0  0
    1.8790    6.5510   52.0230 C   0  0  0  0  0  0  0  0  0  0  0  0
    3.4840    0.5670   51.3600 C   0  0  0  0  0  0  0  0  0  0  0  0
    2.8330    7.3390   51.3780 C   0  0  0  0  0  0  0  0  0  0  0  0
   -0.2650    0.1700   49.6040 C   0  0  0  0  0  0  0  0  0  0  0  0
    1.4720    8.6120   55.1610 C   0  0  0  0  0  0  0  0  0  0  0  0
   -1.4560    0.3430   50.4630 C   0  0  0  0  0  0  0  0  0  0  0  0
    0.0160    8.5140   55.5130 C   0  0  0  0  0  0  0  0  0  0  0  0
    5.8280    0.3260   50.7040 C   0  0  0  0  0  0  0  0  0  0  0  0
    3.5000    6.1670   49.0110 C   0  0  0  0  0  0  0  0  0  0  0  0
    2.9070    2.8060   52.2630 C   0  0  0  0  0  0  0  0  0  0  0  0
    1.3670    5.2730   51.3960 C   0  0  0  0  0  0  0  0  0  0  0  0
   -0.3490   -0.1260   48.4350 O   0  0  0  0  0  0  0  0  0  0  0  0
    2.2430    9.0950   55.9640 O   0  0  0  0  0  0  0  0  0  0  0  0
    4.7960    0.8090   51.5970 O   0  0  0  0  0  0  0  0  0  0  0  0
    3.3570    7.0860   50.1190 O   0  0  0  0  0  0  0  0  0  0  0  0
    2.7110    4.0940   50.9860 S   0  0  0  0  0  0  0  0  0  0  0  0
  1  3  2  0
  1  7  1  0
  2  4  2  0
  2  8  1  0
  3 11  1  0
  4 12  1  0
  5  7  2  0
  5  9  1  0
  6  8  2  0
  6 10  1  0
  7 13  1  0
  8 14  1  0
  9 11  2  0
  9 19  1  0
 10 12  2  0
 10 20  1  0
 11 23  1  0
 12 24  1  0
 13 15  1  0
 13 21  2  0
 14 16  1  0
 14 22  2  0
 17 23  1  0
 18 24  1  0
 19 25  1  0
 20 25  1  0
M  END
>  <washed_aromatic_smiles>  (90) 
CC(=O)c1ccc(c(c1)CSCc2cc(ccc2OC)C(=O)C)OC

>  <name>  (90) 
neg88291

$$$$
neg166626
     RDKit          3D

 25 27  0  0  0  0  0  0  0  0999 V2000
   -0.2030    8.6440   56.5170 C   0  0  0  0  0  0  0  0  0  0  0  0
   -0.0030    8.5590   55.1470 C   0  0  0  0  0  0  0  0  0  0  0  0
    0.8760    8.9440   57.3210 C   0  0  0  0  0  0  0  0  0  0  0  0
    1.9100    2.3440   50.4660 C   0  0  0  0  0  0  0  0  0  0  0  0
    2.4910    3.3610   51.2110 C   0  0  0  0  0  0  0  0  0  0  0  0
    1.2370    8.7540   54.6130 C   0  0  0  0  0  0  0  0  0  0  0  0
    2.1520    9.1530   56.7810 C   0  0  0  0  0  0  0  0  0  0  0  0
    2.0450    3.6880   48.4760 C   0  0  0  0  0  0  0  0  0  0  0  0
    1.6290    2.4990   49.0980 C   0  0  0  0  0  0  0  0  0  0  0  0
    2.8030    4.6000   50.6230 C   0  0  0  0  0  0  0  0  0  0  0  0
    2.6500    4.6880   49.2240 C   0  0  0  0  0  0  0  0  0  0  0  0
    2.3420    9.0370   55.4030 C   0  0  0  0  0  0  0  0  0  0  0  0
    0.9330    1.4440   48.3710 C   0  0  0  0  0  0  0  0  0  0  0  0
    3.7680    5.5700   52.7860 C   0  0  0  0  0  0  0  0  0  0  0  0
    2.7500    7.0800   51.1410 C   0  0  0  0  0  0  0  0  0  0  0  0
    3.2610    6.6200   53.7620 C   0  0  0  0  0  0  0  0  0  0  0  0
    3.1810    8.2890   52.0590 C   0  0  0  0  0  0  0  0  0  0  0  0
    0.3570    1.6570   46.9870 C   0  0  0  0  0  0  0  0  0  0  0  0
    3.2530    5.7140   51.4210 N   0  0  0  0  0  0  0  0  0  0  0  0
    3.7210    7.9280   53.3930 N   0  0  0  0  0  0  0  0  0  0  0  0
    0.7750    0.3460   48.8610 O   0  0  0  0  0  0  0  0  0  0  0  0
    4.2120   10.3260   54.0530 O   0  0  0  0  0  0  0  0  0  0  0  0
    4.8960    8.5470   55.5470 O   0  0  0  0  0  0  0  0  0  0  0  0
    3.1670    5.7200   48.5370 F   0  0  0  0  0  0  0  0  0  0  0  0
    3.9440    9.0410   54.6070 S   0  0  0  0  0  0  0  0  0  0  0  0
  1  2  2  0
  1  3  1  0
  2  6  1  0
  3  7  2  0
  4  5  2  0
  4  9  1  0
  5 10  1  0
  6 12  2  0
  7 12  1  0
  8  9  2  0
  8 11  1  0
  9 13  1  0
 10 11  2  0
 10 19  1  0
 11 24  1  0
 12 25  1  0
 13 18  1  0
 13 21  2  0
 14 16  1  0
 14 19  1  0
 15 17  1  0
 15 19  1  0
 16 20  1  0
 17 20  1  0
 20 25  1  0
 22 25  2  0
 23 25  2  0
M  END
>  <washed_aromatic_smiles>  (91) 
CC(=O)c1ccc(c(c1)F)N2CCN(CC2)S(=O)(=O)c3ccccc3

>  <name>  (91) 
neg166626

$$$$
neg88387
     RDKit          3D

 29 32  0  0  0  0  0  0  0  0999 V2000
    5.8720   12.6960   58.7440 C   0  0  0  0  0  0  0  0  0  0  0  0
    5.6160   11.3540   58.9940 C   0  0  0  0  0  0  0  0  0  0  0  0
    5.6210   13.2170   57.4820 C   0  0  0  0  0  0  0  0  0  0  0  0
    5.1050   10.5360   58.0010 C   0  0  0  0  0  0  0  0  0  0  0  0
    5.1170   12.4000   56.4760 C   0  0  0  0  0  0  0  0  0  0  0  0
    4.5640   10.1910   54.4020 C   0  0  0  0  0  0  0  0  0  0  0  0
    3.0000    9.5520   56.1260 C   0  0  0  0  0  0  0  0  0  0  0  0
    3.7470    9.6030   53.4430 C   0  0  0  0  0  0  0  0  0  0  0  0
    2.1850    8.9780   55.1710 C   0  0  0  0  0  0  0  0  0  0  0  0
    0.6570    0.9920   50.9080 C   0  0  0  0  0  0  0  0  0  0  0  0
    2.8510    1.3890   50.0460 C   0  0  0  0  0  0  0  0  0  0  0  0
    0.6200    2.2940   51.2510 C   0  0  0  0  0  0  0  0  0  0  0  0
    2.7410    2.7460   50.2660 C   0  0  0  0  0  0  0  0  0  0  0  0
    4.8330   11.0540   56.7340 C   0  0  0  0  0  0  0  0  0  0  0  0
    4.1590   10.2330   55.7440 C   0  0  0  0  0  0  0  0  0  0  0  0
    1.7680    0.5360   50.2670 C   0  0  0  0  0  0  0  0  0  0  0  0
    2.5120    9.0580   53.8180 C   0  0  0  0  0  0  0  0  0  0  0  0
    1.6550    3.2310   50.9540 C   0  0  0  0  0  0  0  0  0  0  0  0
    1.6390   -0.7790   49.7960 C   0  0  0  0  0  0  0  0  0  0  0  0
    1.4860    8.6590   52.8750 C   0  0  0  0  0  0  0  0  0  0  0  0
    2.7500    5.5990   50.9770 C   0  0  0  0  0  0  0  0  0  0  0  0
    0.4980    5.3450   51.5830 C   0  0  0  0  0  0  0  0  0  0  0  0
    2.8390    6.8490   51.8830 C   0  0  0  0  0  0  0  0  0  0  0  0
    0.4850    6.5530   52.4930 C   0  0  0  0  0  0  0  0  0  0  0  0
    0.8930   -0.9330   48.4900 C   0  0  0  0  0  0  0  0  0  0  0  0
    1.7230    4.6130   51.4010 N   0  0  0  0  0  0  0  0  0  0  0  0
    1.5710    7.4510   52.2500 N   0  0  0  0  0  0  0  0  0  0  0  0
    2.0560   -1.6710   50.4690 O   0  0  0  0  0  0  0  0  0  0  0  0
    0.4530    9.3090   52.7260 O   0  0  0  0  0  0  0  0  0  0  0  0
  1  2  2  0
  1  3  1  0
  2  4  1  0
  3  5  2  0
  4 14  2  0
  5 14  1  0
  6  8  2  0
  6 15  1  0
  7  9  1  0
  7 15  2  0
  8 17  1  0
  9 17  2  0
 10 12  2  0
 10 16  1  0
 11 13  1  0
 11 16  2  0
 12 18  1  0
 13 18  2  0
 14 15  1  0
 16 19  1  0
 17 20  1  0
 18 26  1  0
 19 25  1  0
 19 28  2  0
 20 27  1  0
 20 29  2  0
 21 23  1  0
 21 26  1  0
 22 24  1  0
 22 26  1  0
 23 27  1  0
 24 27  1  0
M  END
>  <washed_aromatic_smiles>  (92) 
CC(=O)c1ccc(cc1)N2CCN(CC2)C(=O)c3ccc(cc3)c4ccccc4

>  <name>  (92) 
neg88387

$$$$
neg15841
     RDKit          3D

 28 31  0  0  0  0  0  0  0  0999 V2000
    5.6190    9.6920   58.6500 C   0  0  0  0  0  0  0  0  0  0  0  0
    4.5010   10.5520   58.6020 C   0  0  0  0  0  0  0  0  0  0  0  0
    6.0200    9.0200   57.5210 C   0  0  0  0  0  0  0  0  0  0  0  0
    3.6980   10.5700   57.4970 C   0  0  0  0  0  0  0  0  0  0  0  0
    5.8470    8.9930   55.0220 C   0  0  0  0  0  0  0  0  0  0  0  0
    2.7660    1.3850   51.7230 C   0  0  0  0  0  0  0  0  0  0  0  0
    1.5960    1.9570   49.6880 C   0  0  0  0  0  0  0  0  0  0  0  0
    2.8340    2.7030   52.0540 C   0  0  0  0  0  0  0  0  0  0  0  0
    1.7080    3.3070   50.0010 C   0  0  0  0  0  0  0  0  0  0  0  0
    5.0690    9.2100   53.9190 C   0  0  0  0  0  0  0  0  0  0  0  0
    3.1590    9.6140   55.3050 C   0  0  0  0  0  0  0  0  0  0  0  0
    5.3140    9.2190   56.3120 C   0  0  0  0  0  0  0  0  0  0  0  0
    4.0330    9.7870   56.3850 C   0  0  0  0  0  0  0  0  0  0  0  0
    2.0660    0.9770   50.5830 C   0  0  0  0  0  0  0  0  0  0  0  0
    2.2730    3.6750   51.2300 C   0  0  0  0  0  0  0  0  0  0  0  0
    3.6730    9.3740   54.0630 C   0  0  0  0  0  0  0  0  0  0  0  0
    1.7950   -0.4300   50.4260 C   0  0  0  0  0  0  0  0  0  0  0  0
    3.3900    5.4940   52.4300 C   0  0  0  0  0  0  0  0  0  0  0  0
    1.3570    6.0140   51.2790 C   0  0  0  0  0  0  0  0  0  0  0  0
    3.1420    6.5690   53.4710 C   0  0  0  0  0  0  0  0  0  0  0  0
    0.9220    6.8890   52.4610 C   0  0  0  0  0  0  0  0  0  0  0  0
    2.2690   -1.3490   51.5220 C   0  0  0  0  0  0  0  0  0  0  0  0
    2.2190    4.9600   51.7560 N   0  0  0  0  0  0  0  0  0  0  0  0
    2.0670    7.4910   53.1720 N   0  0  0  0  0  0  0  0  0  0  0  0
    1.1760   -0.8800   49.4860 O   0  0  0  0  0  0  0  0  0  0  0  0
    1.5230    9.8360   52.5830 O   0  0  0  0  0  0  0  0  0  0  0  0
    3.4350    8.7670   51.5650 O   0  0  0  0  0  0  0  0  0  0  0  0
    2.6140    8.9440   52.7010 S   0  0  0  0  0  0  0  0  0  0  0  0
  1  2  2  0
  1  3  1  0
  2  4  1  0
  3 12  2  0
  4 13  2  0
  5 10  2  0
  5 12  1  0
  6  8  2  0
  6 14  1  0
  7  9  1  0
  7 14  2  0
  8 15  1  0
  9 15  2  0
 10 16  1  0
 11 13  1  0
 11 16  2  0
 12 13  1  0
 14 17  1  0
 15 23  1  0
 16 28  1  0
 17 22  1  0
 17 25  2  0
 18 20  1  0
 18 23  1  0
 19 21  1  0
 19 23  1  0
 20 24  1  0
 21 24  1  0
 24 28  1  0
 26 28  2  0
 27 28  2  0
M  END
>  <washed_aromatic_smiles>  (93) 
CC(=O)c1ccc(cc1)N2CCN(CC2)S(=O)(=O)c3ccc4ccccc4c3

>  <name>  (93) 
neg15841

$$$$
neg210314
     RDKit          3D

 25 27  0  0  0  0  0  0  0  0999 V2000
    0.3120    0.7340   47.9380 C   0  0  0  0  0  0  0  0  0  0  0  0
    0.5820    2.0390   47.5470 C   0  0  0  0  0  0  0  0  0  0  0  0
    0.7410    0.2730   49.1780 C   0  0  0  0  0  0  0  0  0  0  0  0
    5.4400    9.5330   58.0160 C   0  0  0  0  0  0  0  0  0  0  0  0
    3.8130   10.9490   56.9240 C   0  0  0  0  0  0  0  0  0  0  0  0
    4.9980    8.4410   57.2750 C   0  0  0  0  0  0  0  0  0  0  0  0
    3.3400    9.8600   56.2240 C   0  0  0  0  0  0  0  0  0  0  0  0
    1.2690    2.8970   48.3960 C   0  0  0  0  0  0  0  0  0  0  0  0
    1.4210    1.1240   50.0380 C   0  0  0  0  0  0  0  0  0  0  0  0
    1.2220    7.2630   53.3670 C   0  0  0  0  0  0  0  0  0  0  0  0
    0.7310    6.4870   52.3200 C   0  0  0  0  0  0  0  0  0  0  0  0
    4.9110   10.8200   57.7840 C   0  0  0  0  0  0  0  0  0  0  0  0
    3.9930    8.6390   56.3260 C   0  0  0  0  0  0  0  0  0  0  0  0
    1.6720    2.4490   49.6620 C   0  0  0  0  0  0  0  0  0  0  0  0
    2.5770    7.2890   53.2430 C   0  0  0  0  0  0  0  0  0  0  0  0
    1.8000    6.0640   51.6040 C   0  0  0  0  0  0  0  0  0  0  0  0
    5.5100   12.0100   58.3600 C   0  0  0  0  0  0  0  0  0  0  0  0
    3.5690    7.9710   54.0420 C   0  0  0  0  0  0  0  0  0  0  0  0
    5.7240   13.2450   57.5050 C   0  0  0  0  0  0  0  0  0  0  0  0
    1.8810    5.1830   50.3850 C   0  0  0  0  0  0  0  0  0  0  0  0
    3.6370    7.6620   55.3910 N   0  0  0  0  0  0  0  0  0  0  0  0
    5.9470   12.0180   59.4870 O   0  0  0  0  0  0  0  0  0  0  0  0
    4.3150    8.8470   53.6070 O   0  0  0  0  0  0  0  0  0  0  0  0
    2.9310    6.5470   52.1590 O   0  0  0  0  0  0  0  0  0  0  0  0
    2.4600    3.5060   50.8060 S   0  0  0  0  0  0  0  0  0  0  0  0
  1  2  2  0
  1  3  1  0
  2  8  1  0
  3  9  2  0
  4  6  2  0
  4 12  1  0
  5  7  1  0
  5 12  2  0
  6 13  1  0
  7 13  2  0
  8 14  2  0
  9 14  1  0
 10 11  1  0
 10 15  2  0
 11 16  2  0
 12 17  1  0
 13 21  1  0
 14 25  1  0
 15 18  1  0
 15 24  1  0
 16 20  1  0
 16 24  1  0
 17 19  1  0
 17 22  2  0
 18 21  1  0
 18 23  2  0
 20 25  1  0
M  END
>  <washed_aromatic_smiles>  (94) 
CC(=O)c1ccc(cc1)NC(=O)c2ccc(o2)CSc3ccccc3

>  <name>  (94) 
neg210314

$$$$
neg14028
     RDKit          3D

 28 30  0  0  0  0  0  0  0  0999 V2000
    5.4610   12.3600   58.5120 C   0  0  0  0  0  0  0  0  0  0  0  0
    4.7670   11.1990   58.2040 C   0  0  0  0  0  0  0  0  0  0  0  0
    5.9500   13.1610   57.4900 C   0  0  0  0  0  0  0  0  0  0  0  0
    1.6320    1.6890   50.1250 C   0  0  0  0  0  0  0  0  0  0  0  0
    2.6360    1.9290   52.3090 C   0  0  0  0  0  0  0  0  0  0  0  0
    1.8750    3.0280   49.8530 C   0  0  0  0  0  0  0  0  0  0  0  0
    2.8410    3.2590   52.0560 C   0  0  0  0  0  0  0  0  0  0  0  0
    4.5890   10.8240   56.8770 C   0  0  0  0  0  0  0  0  0  0  0  0
    5.8000   12.7650   56.1630 C   0  0  0  0  0  0  0  0  0  0  0  0
    1.9990    1.1350   51.3670 C   0  0  0  0  0  0  0  0  0  0  0  0
    2.4790    3.8240   50.8310 C   0  0  0  0  0  0  0  0  0  0  0  0
    5.1440   11.5800   55.8380 C   0  0  0  0  0  0  0  0  0  0  0  0
    1.7770   -0.2330   51.7200 C   0  0  0  0  0  0  0  0  0  0  0  0
    2.9810    6.4500   52.7590 C   0  0  0  0  0  0  0  0  0  0  0  0
    1.9710    8.6060   53.2090 C   0  0  0  0  0  0  0  0  0  0  0  0
    3.3330    7.5850   54.8730 C   0  0  0  0  0  0  0  0  0  0  0  0
    3.1150    9.5930   52.9120 C   0  0  0  0  0  0  0  0  0  0  0  0
    4.5120    8.5140   54.5700 C   0  0  0  0  0  0  0  0  0  0  0  0
    2.0750   -1.2610   50.6900 C   0  0  0  0  0  0  0  0  0  0  0  0
    2.1810    6.1650   51.4900 C   0  0  0  0  0  0  0  0  0  0  0  0
    2.5350    7.3450   53.6650 N   0  0  0  0  0  0  0  0  0  0  0  0
    4.0240    9.7980   54.0580 N   0  0  0  0  0  0  0  0  0  0  0  0
    2.7510    5.1630   50.5700 N   0  0  0  0  0  0  0  0  0  0  0  0
    1.5150   -0.5770   52.8560 O   0  0  0  0  0  0  0  0  0  0  0  0
    4.0540    5.8880   52.9520 O   0  0  0  0  0  0  0  0  0  0  0  0
    4.4670   12.2090   53.3890 O   0  0  0  0  0  0  0  0  0  0  0  0
    6.3390   10.7060   53.6650 O   0  0  0  0  0  0  0  0  0  0  0  0
    5.0440   11.1120   54.0950 S   0  0  0  0  0  0  0  0  0  0  0  0
  1  2  2  0
  1  3  1  0
  2  8  1  0
  3  9  2  0
  4  6  2  0
  4 10  1  0
  5  7  1  0
  5 10  2  0
  6 11  1  0
  7 11  2  0
  8 12  2  0
  9 12  1  0
 10 13  1  0
 11 23  1  0
 12 28  1  0
 13 19  1  0
 13 24  2  0
 14 20  1  0
 14 21  1  0
 14 25  2  0
 15 17  1  0
 15 21  1  0
 16 18  1  0
 16 21  1  0
 17 22  1  0
 18 22  1  0
 20 23  1  0
 22 28  1  0
 26 28  2  0
 27 28  2  0
M  END
>  <washed_aromatic_smiles>  (95) 
CC(=O)c1ccc(cc1)NCC(=O)N2CCN(CC2)S(=O)(=O)c3ccccc3

>  <name>  (95) 
neg14028

$$$$
neg200393
     RDKit          3D

 28 31  0  0  0  0  0  0  0  0999 V2000
    1.1380    3.3440   47.6240 C   0  0  0  0  0  0  0  0  0  0  0  0
    2.9920    0.7290   54.2650 C   0  0  0  0  0  0  0  0  0  0  0  0
    0.5090    2.1730   47.2320 C   0  0  0  0  0  0  0  0  0  0  0  0
    2.8070   -0.5840   53.8860 C   0  0  0  0  0  0  0  0  0  0  0  0
    4.5440    8.2270   54.9030 C   0  0  0  0  0  0  0  0  0  0  0  0
    2.5310    9.1770   55.8290 C   0  0  0  0  0  0  0  0  0  0  0  0
    1.8220    3.4180   48.8160 C   0  0  0  0  0  0  0  0  0  0  0  0
    2.7680    1.7490   53.3500 C   0  0  0  0  0  0  0  0  0  0  0  0
    3.7870    7.5230   53.9790 C   0  0  0  0  0  0  0  0  0  0  0  0
    1.7690    8.5080   54.8730 C   0  0  0  0  0  0  0  0  0  0  0  0
    0.5710    1.0590   48.0580 C   0  0  0  0  0  0  0  0  0  0  0  0
    2.3510   -0.8750   52.6070 C   0  0  0  0  0  0  0  0  0  0  0  0
    3.9290    9.0420   55.8610 C   0  0  0  0  0  0  0  0  0  0  0  0
    1.7600    2.3650   49.7260 C   0  0  0  0  0  0  0  0  0  0  0  0
    2.3480    1.4910   52.0430 C   0  0  0  0  0  0  0  0  0  0  0  0
    2.4020    7.6620   53.9670 C   0  0  0  0  0  0  0  0  0  0  0  0
    1.2090    1.1400   49.2950 C   0  0  0  0  0  0  0  0  0  0  0  0
    2.0750    0.1480   51.7000 C   0  0  0  0  0  0  0  0  0  0  0  0
    4.7400    9.7020   56.8760 C   0  0  0  0  0  0  0  0  0  0  0  0
    2.0080    6.4680   51.8710 C   0  0  0  0  0  0  0  0  0  0  0  0
    4.3010   10.9840   57.5430 C   0  0  0  0  0  0  0  0  0  0  0  0
    1.4430    5.1590   51.3780 C   0  0  0  0  0  0  0  0  0  0  0  0
    2.5390    4.0500   51.4410 C   0  0  0  0  0  0  0  0  0  0  0  0
    2.1860    2.6030   51.0870 N   0  0  0  0  0  0  0  0  0  0  0  0
    5.7920    9.2220   57.2360 O   0  0  0  0  0  0  0  0  0  0  0  0
    2.8390    7.0790   51.2490 O   0  0  0  0  0  0  0  0  0  0  0  0
    1.6330    6.8810   53.1110 O   0  0  0  0  0  0  0  0  0  0  0  0
    1.3190   -0.3320   50.2090 S   0  0  0  0  0  0  0  0  0  0  0  0
  1  3  2  0
  1  7  1  0
  2  4  2  0
  2  8  1  0
  3 11  1  0
  4 12  1  0
  5  9  2  0
  5 13  1  0
  6 10  1  0
  6 13  2  0
  7 14  2  0
  8 15  2  0
  9 16  1  0
 10 16  2  0
 11 17  2  0
 12 18  2  0
 13 19  1  0
 14 17  1  0
 14 24  1  0
 15 18  1  0
 15 24  1  0
 16 27  1  0
 17 28  1  0
 18 28  1  0
 19 21  1  0
 19 25  2  0
 20 22  1  0
 20 26  2  0
 20 27  1  0
 22 23  1  0
 23 24  1  0
M  END
>  <washed_aromatic_smiles>  (96) 
CC(=O)c1ccc(cc1)OC(=O)CCN2c3ccccc3Sc4c2cccc4

>  <name>  (96) 
neg200393

$$$$
neg13665
     RDKit          3D

 25 27  0  0  0  0  0  0  0  0999 V2000
    4.0740    8.3660   54.8150 C   0  0  0  0  0  0  0  0  0  0  0  0
    2.9120    9.4670   53.0300 C   0  0  0  0  0  0  0  0  0  0  0  0
    1.6030    1.9070   49.6260 C   0  0  0  0  0  0  0  0  0  0  0  0
    2.7100    1.6950   51.7550 C   0  0  0  0  0  0  0  0  0  0  0  0
    3.4860    7.1800   54.4430 C   0  0  0  0  0  0  0  0  0  0  0  0
    2.3340    8.2820   52.6620 C   0  0  0  0  0  0  0  0  0  0  0  0
    1.6820    3.2920   49.7300 C   0  0  0  0  0  0  0  0  0  0  0  0
    2.7710    3.0690   51.8540 C   0  0  0  0  0  0  0  0  0  0  0  0
    2.0750    1.0910   50.6650 C   0  0  0  0  0  0  0  0  0  0  0  0
    3.9100    9.5210   54.0210 C   0  0  0  0  0  0  0  0  0  0  0  0
    2.7940    7.0680   53.2120 C   0  0  0  0  0  0  0  0  0  0  0  0
    2.2290    3.8830   50.8680 C   0  0  0  0  0  0  0  0  0  0  0  0
    1.8790   -0.3490   50.6500 C   0  0  0  0  0  0  0  0  0  0  0  0
    4.6980   10.7110   54.1900 C   0  0  0  0  0  0  0  0  0  0  0  0
    4.7630   13.4060   55.8100 C   0  0  0  0  0  0  0  0  0  0  0  0
    5.4480   12.9340   57.0560 C   0  0  0  0  0  0  0  0  0  0  0  0
    5.7610   12.2930   55.7370 C   0  0  0  0  0  0  0  0  0  0  0  0
    2.3490   -1.1720   51.8250 C   0  0  0  0  0  0  0  0  0  0  0  0
    2.6770    5.9070   52.6040 N   0  0  0  0  0  0  0  0  0  0  0  0
    5.2640   10.9660   55.4220 N   0  0  0  0  0  0  0  0  0  0  0  0
    1.3230   -0.9070   49.7310 O   0  0  0  0  0  0  0  0  0  0  0  0
    4.8920   11.5440   53.2880 O   0  0  0  0  0  0  0  0  0  0  0  0
    0.7720    6.0290   50.9930 O   0  0  0  0  0  0  0  0  0  0  0  0
    3.0660    6.2390   50.1550 O   0  0  0  0  0  0  0  0  0  0  0  0
    2.1520    5.6560   51.0910 S   0  0  2  0  0  0  0  0  0  0  0  0
  1  5  2  0
  1 10  1  0
  2  6  1  0
  2 10  2  0
  3  7  2  0
  3  9  1  0
  4  8  1  0
  4  9  2  0
  5 11  1  0
  6 11  2  0
  7 12  1  0
  8 12  2  0
  9 13  1  0
 10 14  1  0
 11 19  1  0
 12 25  1  0
 13 18  1  0
 13 21  2  0
 14 20  1  0
 14 22  2  0
 15 16  1  0
 15 17  1  0
 16 17  1  0
 17 20  1  0
 19 25  2  0
 23 25  2  0
 25 24  1  6
M  CHG  1  24  -1
M  END
>  <washed_aromatic_smiles>  (97) 
CC(=O)c1ccc(cc1)S(=O)(=O)Nc2ccc(cc2)C(=O)NC3CC3

>  <name>  (97) 
neg13665

$$$$
neg279641
     RDKit          3D

 26 27  0  0  0  0  0  0  0  0999 V2000
    0.7800    8.4760   54.5930 C   0  0  0  0  0  0  0  0  0  0  0  0
    2.0310    8.7670   55.1280 C   0  0  0  0  0  0  0  0  0  0  0  0
    0.6710    7.6680   53.4780 C   0  0  0  0  0  0  0  0  0  0  0  0
   -0.3260    0.6860   47.6060 C   0  0  0  0  0  0  0  0  0  0  0  0
    1.3460    2.4100   47.3490 C   0  0  0  0  0  0  0  0  0  0  0  0
    0.0770    0.4910   48.9150 C   0  0  0  0  0  0  0  0  0  0  0  0
    1.8270    2.1120   48.5960 C   0  0  0  0  0  0  0  0  0  0  0  0
    3.0700    7.3450   53.4770 C   0  0  0  0  0  0  0  0  0  0  0  0
    3.1920    8.2500   54.5400 C   0  0  0  0  0  0  0  0  0  0  0  0
    1.8020    7.0470   52.9710 C   0  0  0  0  0  0  0  0  0  0  0  0
    0.3480    1.6150   46.8280 C   0  0  0  0  0  0  0  0  0  0  0  0
    1.1630    1.2020   49.4060 C   0  0  0  0  0  0  0  0  0  0  0  0
    4.4920    8.6730   55.0370 C   0  0  0  0  0  0  0  0  0  0  0  0
    2.3700    5.1940   51.3860 C   0  0  0  0  0  0  0  0  0  0  0  0
    5.6080    8.9830   54.0690 C   0  0  0  0  0  0  0  0  0  0  0  0
    3.1020    2.5860   52.6200 C   0  0  0  0  0  0  0  0  0  0  0  0
    1.0380    0.7310   44.8590 C   0  0  0  0  0  0  0  0  0  0  0  0
    1.7290    3.8880   50.9740 C   0  0  0  0  0  0  0  0  0  0  0  0
    1.5160    6.0370   52.0330 N   0  0  0  0  0  0  0  0  0  0  0  0
    2.3830    2.5530   51.3800 N   0  0  0  0  0  0  0  0  0  0  0  0
    4.6920    8.8360   56.2200 O   0  0  0  0  0  0  0  0  0  0  0  0
    3.5180    5.4970   51.1490 O   0  0  0  0  0  0  0  0  0  0  0  0
    0.4520    0.9950   51.8850 O   0  0  0  0  0  0  0  0  0  0  0  0
    2.5760    0.0310   51.2310 O   0  0  0  0  0  0  0  0  0  0  0  0
    0.1690    1.6470   45.5090 O   0  0  0  0  0  0  0  0  0  0  0  0
    1.6340    1.0930   51.0940 S   0  0  0  0  0  0  0  0  0  0  0  0
  1  2  2  0
  1  3  1  0
  2  9  1  0
  3 10  2  0
  4  6  2  0
  4 11  1  0
  5  7  1  0
  5 11  2  0
  6 12  1  0
  7 12  2  0
  8  9  2  0
  8 10  1  0
  9 13  1  0
 10 19  1  0
 11 25  1  0
 12 26  1  0
 13 15  1  0
 13 21  2  0
 14 18  1  0
 14 19  1  0
 14 22  2  0
 16 20  1  0
 17 25  1  0
 18 20  1  0
 20 26  1  0
 23 26  2  0
 24 26  2  0
M  END
>  <washed_aromatic_smiles>  (98) 
CC(=O)c1cccc(c1)NC(=O)CN(C)S(=O)(=O)c2ccc(cc2)OC

>  <name>  (98) 
neg279641

$$$$
neg45529
     RDKit          3D

 29 32  0  0  0  0  0  0  0  0999 V2000
    5.9140   10.2690   59.3250 C   0  0  0  0  0  0  0  0  0  0  0  0
    6.2750    8.9110   59.2590 C   0  0  0  0  0  0  0  0  0  0  0  0
    0.2110    8.2890   53.9110 C   0  0  0  0  0  0  0  0  0  0  0  0
    3.1190    4.4560   48.2840 C   0  0  0  0  0  0  0  0  0  0  0  0
    4.9070   10.7970   58.5450 C   0  0  0  0  0  0  0  0  0  0  0  0
    5.6750    8.0760   58.3590 C   0  0  0  0  0  0  0  0  0  0  0  0
    0.7530    7.5480   52.8740 C   0  0  0  0  0  0  0  0  0  0  0  0
    2.3470    3.3470   47.9700 C   0  0  0  0  0  0  0  0  0  0  0  0
    0.9850    8.6430   54.9910 C   0  0  0  0  0  0  0  0  0  0  0  0
    3.0020    5.0560   49.5180 C   0  0  0  0  0  0  0  0  0  0  0  0
    2.9390    7.8780   53.8180 C   0  0  0  0  0  0  0  0  0  0  0  0
    1.5440    3.2500   50.2260 C   0  0  0  0  0  0  0  0  0  0  0  0
    4.2920    9.9380   57.6650 C   0  0  0  0  0  0  0  0  0  0  0  0
    4.7170    8.6410   57.5570 C   0  0  0  0  0  0  0  0  0  0  0  0
    2.1090    7.2030   52.9290 C   0  0  0  0  0  0  0  0  0  0  0  0
    1.6060    2.6770   48.9530 C   0  0  0  0  0  0  0  0  0  0  0  0
    2.3560    8.5440   54.8880 C   0  0  0  0  0  0  0  0  0  0  0  0
    2.1360    4.4880   50.4470 C   0  0  0  0  0  0  0  0  0  0  0  0
    3.2340   10.1330   56.7340 C   0  0  0  0  0  0  0  0  0  0  0  0
    4.0330    8.0430   56.4970 C   0  0  0  0  0  0  0  0  0  0  0  0
    0.9140    1.4290   48.6410 C   0  0  0  0  0  0  0  0  0  0  0  0
    2.6390    6.0530   52.2260 C   0  0  0  0  0  0  0  0  0  0  0  0
    0.4540    0.4840   49.7310 C   0  0  0  0  0  0  0  0  0  0  0  0
    3.1570    8.9570   55.9630 N   0  0  0  0  0  0  0  0  0  0  0  0
    1.7670    5.2340   51.5660 N   0  0  0  0  0  0  0  0  0  0  0  0
    2.5100   11.0990   56.6880 O   0  0  0  0  0  0  0  0  0  0  0  0
    4.1930    6.9240   56.1280 O   0  0  0  0  0  0  0  0  0  0  0  0
    0.6970    1.1040   47.4950 O   0  0  0  0  0  0  0  0  0  0  0  0
    3.8010    5.6960   52.3070 O   0  0  0  0  0  0  0  0  0  0  0  0
  1  2  2  0
  1  5  1  0
  2  6  1  0
  3  7  2  0
  3  9  1  0
  4  8  2  0
  4 10  1  0
  5 13  2  0
  6 14  2  0
  7 15  1  0
  8 16  1  0
  9 17  2  0
 10 18  2  0
 11 15  2  0
 11 17  1  0
 12 16  2  0
 12 18  1  0
 13 14  1  0
 13 19  1  0
 14 20  1  0
 15 22  1  0
 16 21  1  0
 17 24  1  0
 18 25  1  0
 19 24  1  0
 19 26  2  0
 20 24  1  0
 20 27  2  0
 21 23  1  0
 21 28  2  0
 22 25  1  0
 22 29  2  0
M  END
>  <washed_aromatic_smiles>  (99) 
CC(=O)c1cccc(c1)NC(=O)c2cccc(c2)N3C(=O)c4ccccc4C3=O

>  <name>  (99) 
neg45529

$$$$
neg18808
     RDKit          3D

 26 28  0  0  0  0  0  0  0  0999 V2000
    1.2040    8.9970   56.8620 C   0  0  0  0  0  0  0  0  0  0  0  0
    0.0940    8.6490   56.0900 C   0  0  0  0  0  0  0  0  0  0  0  0
    1.4780    3.6280   48.1040 C   0  0  0  0  0  0  0  0  0  0  0  0
    1.2580    2.3190   48.5030 C   0  0  0  0  0  0  0  0  0  0  0  0
    2.4480    9.1840   56.2690 C   0  0  0  0  0  0  0  0  0  0  0  0
    0.2430    8.4590   54.7140 C   0  0  0  0  0  0  0  0  0  0  0  0
    2.1110    4.5250   48.9450 C   0  0  0  0  0  0  0  0  0  0  0  0
    2.2930    2.7980   50.6330 C   0  0  0  0  0  0  0  0  0  0  0  0
    1.6850    1.8770   49.7670 C   0  0  0  0  0  0  0  0  0  0  0  0
    2.5920    8.9870   54.8940 C   0  0  0  0  0  0  0  0  0  0  0  0
    1.5000    8.5270   54.1380 C   0  0  0  0  0  0  0  0  0  0  0  0
    2.4700    4.1140   50.2230 C   0  0  0  0  0  0  0  0  0  0  0  0
    1.4980    0.4920   50.1720 C   0  0  0  0  0  0  0  0  0  0  0  0
    2.4340    6.9210   52.5520 C   0  0  0  0  0  0  0  0  0  0  0  0
    3.9330    9.9290   52.9940 C   0  0  0  0  0  0  0  0  0  0  0  0
    4.9260    8.4300   54.5470 C   0  0  0  0  0  0  0  0  0  0  0  0
    5.2630   10.6910   52.8550 C   0  0  0  0  0  0  0  0  0  0  0  0
    6.1870    9.2450   54.4470 C   0  0  0  0  0  0  0  0  0  0  0  0
    0.7560   -0.4800   49.2860 C   0  0  0  0  0  0  0  0  0  0  0  0
    2.4520    6.3680   51.1560 C   0  0  0  0  0  0  0  0  0  0  0  0
    3.8200    9.3280   54.3200 N   0  0  0  0  0  0  0  0  0  0  0  0
    1.6440    8.0150   52.8190 N   0  0  0  0  0  0  0  0  0  0  0  0
    1.9360    0.0780   51.2220 O   0  0  0  0  0  0  0  0  0  0  0  0
    3.0840    6.4080   53.4380 O   0  0  0  0  0  0  0  0  0  0  0  0
    6.3650    9.8610   53.1830 O   0  0  0  0  0  0  0  0  0  0  0  0
    2.9770    5.0150   51.1120 O   0  0  0  0  0  0  0  0  0  0  0  0
  1  2  2  0
  1  5  1  0
  2  6  1  0
  3  4  2  0
  3  7  1  0
  4  9  1  0
  5 10  2  0
  6 11  2  0
  7 12  2  0
  8  9  2  0
  8 12  1  0
  9 13  1  0
 10 11  1  0
 10 21  1  0
 11 22  1  0
 12 26  1  0
 13 19  1  0
 13 23  2  0
 14 20  1  0
 14 22  1  0
 14 24  2  0
 15 17  1  0
 15 21  1  0
 16 18  1  0
 16 21  1  0
 17 25  1  0
 18 25  1  0
 20 26  1  0
M  END
>  <washed_aromatic_smiles>  (100) 
CC(=O)c1cccc(c1)OCC(=O)Nc2ccccc2N3CCOCC3

>  <name>  (100) 
neg18808

$$$$
neg87029
     RDKit          3D

 25 27  0  0  0  0  0  0  0  0999 V2000
    2.6020    9.3430   56.1320 C   0  0  0  0  0  0  0  0  0  0  0  0
    3.7930    9.9510   55.7760 C   0  0  0  0  0  0  0  0  0  0  0  0
    1.6030    3.5800   50.2120 C   0  0  0  0  0  0  0  0  0  0  0  0
    2.8920    3.5640   52.2290 C   0  0  0  0  0  0  0  0  0  0  0  0
    1.5580    4.9750   50.2800 C   0  0  0  0  0  0  0  0  0  0  0  0
    2.9390    4.9460   52.2520 C   0  0  0  0  0  0  0  0  0  0  0  0
    1.8340    8.7130   55.1610 C   0  0  0  0  0  0  0  0  0  0  0  0
    3.4780    9.2050   53.4910 C   0  0  0  0  0  0  0  0  0  0  0  0
    4.2150    9.9470   54.4390 C   0  0  0  0  0  0  0  0  0  0  0  0
    2.2110    2.8640   51.2450 C   0  0  0  0  0  0  0  0  0  0  0  0
    2.2160    5.6620   51.3160 C   0  0  0  0  0  0  0  0  0  0  0  0
    2.2800    8.5880   53.8510 C   0  0  0  0  0  0  0  0  0  0  0  0
    5.3600   10.7660   54.0620 C   0  0  0  0  0  0  0  0  0  0  0  0
    1.6760    0.5170   50.4120 C   0  0  0  0  0  0  0  0  0  0  0  0
    1.8580    0.8920   52.7640 C   0  0  0  0  0  0  0  0  0  0  0  0
    2.3480   -0.8540   50.6380 C   0  0  0  0  0  0  0  0  0  0  0  0
    2.5620   -0.4470   52.9580 C   0  0  0  0  0  0  0  0  0  0  0  0
    6.1540   10.4630   52.8250 C   0  0  0  0  0  0  0  0  0  0  0  0
    2.1460    1.4530   51.4170 N   0  0  0  0  0  0  0  0  0  0  0  0
    2.1910    7.0700   51.4760 N   0  0  0  0  0  0  0  0  0  0  0  0
    5.7210   11.6970   54.7470 O   0  0  0  0  0  0  0  0  0  0  0  0
    0.2590    8.5930   52.2160 O   0  0  0  0  0  0  0  0  0  0  0  0
    0.6540    6.5840   53.4220 O   0  0  0  0  0  0  0  0  0  0  0  0
    2.1730   -1.3660   51.9560 O   0  0  0  0  0  0  0  0  0  0  0  0
    1.2110    7.6750   52.7220 S   0  0  0  0  0  0  0  0  0  0  0  0
  1  2  2  0
  1  7  1  0
  2  9  1  0
  3  5  2  0
  3 10  1  0
  4  6  1  0
  4 10  2  0
  5 11  1  0
  6 11  2  0
  7 12  2  0
  8  9  2  0
  8 12  1  0
  9 13  1  0
 10 19  1  0
 11 20  1  0
 12 25  1  0
 13 18  1  0
 13 21  2  0
 14 16  1  0
 14 19  1  0
 15 17  1  0
 15 19  1  0
 16 24  1  0
 17 24  1  0
 20 25  1  0
 22 25  2  0
 23 25  2  0
M  END
>  <washed_aromatic_smiles>  (101) 
CC(=O)c1cccc(c1)S(=O)(=O)Nc2ccc(cc2)N3CCOCC3

>  <name>  (101) 
neg87029

$$$$
neg201359
     RDKit          3D

 31 33  0  0  0  0  0  0  0  0999 V2000
    5.4960   13.3390   53.3590 C   0  0  0  0  0  0  0  0  0  0  0  0
    4.9900   13.3930   54.6540 C   0  0  0  0  0  0  0  0  0  0  0  0
    5.9460   12.1310   52.8400 C   0  0  0  0  0  0  0  0  0  0  0  0
    2.5600    3.7550   48.1550 C   0  0  0  0  0  0  0  0  0  0  0  0
    5.4910    6.1030   58.7770 C   0  0  0  0  0  0  0  0  0  0  0  0
    3.2270    4.9280   48.4810 C   0  0  0  0  0  0  0  0  0  0  0  0
    5.9090    7.2420   59.4670 C   0  0  0  0  0  0  0  0  0  0  0  0
    4.9340   12.2440   55.4270 C   0  0  0  0  0  0  0  0  0  0  0  0
    5.8720   10.9850   53.5910 C   0  0  0  0  0  0  0  0  0  0  0  0
    2.1210    2.9170   49.1620 C   0  0  0  0  0  0  0  0  0  0  0  0
    4.7910    6.2200   57.5800 C   0  0  0  0  0  0  0  0  0  0  0  0
    3.3860    5.3040   49.7960 C   0  0  0  0  0  0  0  0  0  0  0  0
    5.6930    8.4970   58.9200 C   0  0  0  0  0  0  0  0  0  0  0  0
    5.3940   11.0320   54.8990 C   0  0  0  0  0  0  0  0  0  0  0  0
    2.3180    3.2400   50.5130 C   0  0  0  0  0  0  0  0  0  0  0  0
    4.4520    7.4830   57.0610 C   0  0  0  0  0  0  0  0  0  0  0  0
    2.8190    4.5410   50.8240 C   0  0  0  0  0  0  0  0  0  0  0  0
    5.0420    8.5940   57.6920 C   0  0  0  0  0  0  0  0  0  0  0  0
    2.0610    2.1620   51.4520 C   0  0  0  0  0  0  0  0  0  0  0  0
    5.4710    9.8130   55.6670 C   0  0  0  0  0  0  0  0  0  0  0  0
    3.4990    7.7280   55.9530 C   0  0  0  0  0  0  0  0  0  0  0  0
    2.6530    6.5320   52.4240 C   0  0  0  0  0  0  0  0  0  0  0  0
    3.0110    1.8270   52.5730 C   0  0  0  0  0  0  0  0  0  0  0  0
    2.3930    7.1100   53.8080 C   0  0  0  0  0  0  0  0  0  0  0  0
    5.0910    9.8070   57.0000 N   0  0  0  0  0  0  0  0  0  0  0  0
    2.7210    5.1420   52.1440 N   0  0  0  0  0  0  0  0  0  0  0  0
    1.1000    1.4350   51.3140 O   0  0  0  0  0  0  0  0  0  0  0  0
    5.9640    8.7900   55.1860 O   0  0  0  0  0  0  0  0  0  0  0  0
    2.6910    8.6500   55.9970 O   0  0  0  0  0  0  0  0  0  0  0  0
    2.7270    7.3330   51.5250 O   0  0  0  0  0  0  0  0  0  0  0  0
    3.4510    6.9280   54.8320 O   0  0  0  0  0  0  0  0  0  0  0  0
  1  2  2  0
  1  3  1  0
  2  8  1  0
  3  9  2  0
  4  6  2  0
  4 10  1  0
  5  7  2  0
  5 11  1  0
  6 12  1  0
  7 13  1  0
  8 14  2  0
  9 14  1  0
 10 15  2  0
 11 16  2  0
 12 17  2  0
 13 18  2  0
 14 20  1  0
 15 17  1  0
 15 19  1  0
 16 18  1  0
 16 21  1  0
 17 26  1  0
 18 25  1  0
 19 23  1  0
 19 27  2  0
 20 25  1  0
 20 28  2  0
 21 29  2  0
 21 31  1  0
 22 24  1  0
 22 26  1  0
 22 30  2  0
 24 31  1  0
M  END
>  <washed_aromatic_smiles>  (102) 
CC(=O)c1ccccc1NC(=O)COC(=O)c2ccccc2NC(=O)c3ccccc3

>  <name>  (102) 
neg201359

$$$$
neg59029
     RDKit          3D

 26 28  0  0  0  0  0  0  0  0999 V2000
    0.6170    1.0530   45.8700 C   0  0  0  0  0  0  0  0  0  0  0  0
    0.8690    6.1480   51.1510 C   0  0  0  0  0  0  0  0  0  0  0  0
    2.7480    5.0810   52.2290 C   0  0  0  0  0  0  0  0  0  0  0  0
    0.8890    5.1820   50.1690 C   0  0  0  0  0  0  0  0  0  0  0  0
    2.6410    4.0120   51.3410 C   0  0  0  0  0  0  0  0  0  0  0  0
    0.4540    1.9460   46.9200 C   0  0  0  0  0  0  0  0  0  0  0  0
    1.1180   -0.0790   46.4090 C   0  0  0  0  0  0  0  0  0  0  0  0
    1.8520    6.1580   52.1230 C   0  0  0  0  0  0  0  0  0  0  0  0
    1.7560    4.1100   50.2760 C   0  0  0  0  0  0  0  0  0  0  0  0
    0.9010    1.3270   48.0470 C   0  0  0  0  0  0  0  0  0  0  0  0
    1.2180    1.9010   49.3310 C   0  0  0  0  0  0  0  0  0  0  0  0
    4.1500   10.2470   55.0880 C   0  0  0  0  0  0  0  0  0  0  0  0
    3.0800    8.0830   52.3900 C   0  0  0  0  0  0  0  0  0  0  0  0
    2.0330    7.2810   54.2880 C   0  0  0  0  0  0  0  0  0  0  0  0
    3.1050    9.4950   52.9270 C   0  0  0  0  0  0  0  0  0  0  0  0
    2.2710    8.6260   55.0070 C   0  0  0  0  0  0  0  0  0  0  0  0
    6.2070   10.4810   53.5690 C   0  0  0  0  0  0  0  0  0  0  0  0
    5.8270   12.1110   55.5270 C   0  0  0  0  0  0  0  0  0  0  0  0
    4.5780   12.3810   53.5310 C   0  0  0  0  0  0  0  0  0  0  0  0
    5.1610   11.2490   54.4190 C   0  0  0  0  0  0  0  0  0  0  0  0
    1.9360    7.3540   52.8480 N   0  0  0  0  0  0  0  0  0  0  0  0
    3.2960    9.4760   54.3700 N   0  0  0  0  0  0  0  0  0  0  0  0
    1.7220    3.1730   49.2390 N   0  0  0  0  0  0  0  0  0  0  0  0
    1.1020    1.3460   50.4210 O   0  0  0  0  0  0  0  0  0  0  0  0
    4.1450   10.1540   56.3190 O   0  0  0  0  0  0  0  0  0  0  0  0
    1.2180    0.0480   47.7450 O   0  0  0  0  0  0  0  0  0  0  0  0
  1  6  1  0
  1  7  2  0
  2  4  2  0
  2  8  1  0
  3  5  1  0
  3  8  2  0
  4  9  1  0
  5  9  2  0
  6 10  2  0
  7 26  1  0
  8 21  1  0
  9 23  1  0
 10 11  1  0
 10 26  1  0
 11 23  1  0
 11 24  2  0
 12 20  1  0
 12 22  1  0
 12 25  2  0
 13 15  1  0
 13 21  1  0
 14 16  1  0
 14 21  1  0
 15 22  1  0
 16 22  1  0
 17 20  1  0
 18 20  1  0
 19 20  1  0
M  END
>  <washed_aromatic_smiles>  (103) 
CC(C)(C)C(=O)N1CCN(CC1)c2ccc(cc2)NC(=O)c3ccco3

>  <name>  (103) 
neg59029

$$$$
neg227340
     RDKit          3D

 27 29  0  0  0  0  0  0  0  0999 V2000
    1.6040    3.2040   49.3370 C   0  0  0  0  0  0  0  0  0  0  0  0
    2.3010   -1.0520   52.0330 C   0  0  0  0  0  0  0  0  0  0  0  0
    1.9030    4.5260   49.6850 C   0  0  0  0  0  0  0  0  0  0  0  0
    2.8480   -1.2160   53.3030 C   0  0  0  0  0  0  0  0  0  0  0  0
    2.6630    3.7830   51.8570 C   0  0  0  0  0  0  0  0  0  0  0  0
    2.8610    1.1620   53.6570 C   0  0  0  0  0  0  0  0  0  0  0  0
    2.3350    2.4900   51.5110 C   0  0  0  0  0  0  0  0  0  0  0  0
    2.4430    1.3100   52.3290 C   0  0  0  0  0  0  0  0  0  0  0  0
    1.7860    2.1920   50.2770 C   0  0  0  0  0  0  0  0  0  0  0  0
    2.0630    0.2250   51.5610 C   0  0  0  0  0  0  0  0  0  0  0  0
    2.3850    4.8220   50.9710 C   0  0  0  0  0  0  0  0  0  0  0  0
    3.1020   -0.1280   54.1420 C   0  0  0  0  0  0  0  0  0  0  0  0
    3.0780    6.6230   52.5900 C   0  0  0  0  0  0  0  0  0  0  0  0
    4.1720    0.4040   56.4290 C   0  0  0  0  0  0  0  0  0  0  0  0
    1.4420    0.7130   50.2560 C   0  0  0  0  0  0  0  0  0  0  0  0
    3.3050    9.1080   52.5010 C   0  0  0  0  0  0  0  0  0  0  0  0
    3.1180    8.0360   54.6940 C   0  0  0  0  0  0  0  0  0  0  0  0
    1.1010    8.0660   53.1990 C   0  0  0  0  0  0  0  0  0  0  0  0
    4.7550   -1.2320   58.3850 C   0  0  0  0  0  0  0  0  0  0  0  0
    5.6650    1.0790   58.3660 C   0  0  0  0  0  0  0  0  0  0  0  0
    6.5030   -0.6440   56.7510 C   0  0  0  0  0  0  0  0  0  0  0  0
    2.6420    7.9440   53.2300 C   0  0  0  0  0  0  0  0  0  0  0  0
    5.2430   -0.0980   57.4560 C   0  0  0  0  0  0  0  0  0  0  0  0
    2.4790    6.1840   51.4110 N   0  0  0  0  0  0  0  0  0  0  0  0
    3.7280   -0.4450   55.4200 N   0  0  0  0  0  0  0  0  0  0  0  0
    3.9610    5.9640   53.0930 O   0  0  0  0  0  0  0  0  0  0  0  0
    3.6890    1.5170   56.5010 O   0  0  0  0  0  0  0  0  0  0  0  0
  1  3  2  0
  1  9  1  0
  2  4  1  0
  2 10  2  0
  3 11  1  0
  4 12  2  0
  5  7  1  0
  5 11  2  0
  6  8  2  0
  6 12  1  0
  7  8  1  0
  7  9  2  0
  8 10  1  0
  9 15  1  0
 10 15  1  0
 11 24  1  0
 12 25  1  0
 13 22  1  0
 13 24  1  0
 13 26  2  0
 14 23  1  0
 14 25  1  0
 14 27  2  0
 16 22  1  0
 17 22  1  0
 18 22  1  0
 19 23  1  0
 20 23  1  0
 21 23  1  0
M  END
>  <washed_aromatic_smiles>  (104) 
CC(C)(C)C(=O)Nc1ccc2c(c1)-c3cc(ccc3C2)NC(=O)C(C)(C)C

>  <name>  (104) 
neg227340

$$$$
neg237145
     RDKit          3D

 38 40  0  0  0  0  0  0  0  0999 V2000
    5.4180   12.6660   54.6590 C   0  0  0  0  0  0  0  0  0  0  0  0
    2.6220   -0.5570   53.9540 C   0  0  0  0  0  0  0  0  0  0  0  0
    4.9330   11.8520   55.6740 C   0  0  0  0  0  0  0  0  0  0  0  0
    5.5000   12.1800   53.3580 C   0  0  0  0  0  0  0  0  0  0  0  0
    1.7050    0.4790   53.9520 C   0  0  0  0  0  0  0  0  0  0  0  0
    2.7450   -1.3450   52.8190 C   0  0  0  0  0  0  0  0  0  0  0  0
    3.1290    2.4390   51.7420 C   0  0  0  0  0  0  0  0  0  0  0  0
    4.4990   10.5650   55.3800 C   0  0  0  0  0  0  0  0  0  0  0  0
    5.0740   10.8910   53.0610 C   0  0  0  0  0  0  0  0  0  0  0  0
    0.8880    0.6650   52.8490 C   0  0  0  0  0  0  0  0  0  0  0  0
    2.0580   -1.0450   51.6600 C   0  0  0  0  0  0  0  0  0  0  0  0
    2.9020    3.6760   52.2810 C   0  0  0  0  0  0  0  0  0  0  0  0
    2.8590    2.2460   50.4210 C   0  0  0  0  0  0  0  0  0  0  0  0
    2.0350    4.5100   50.2200 C   0  0  0  0  0  0  0  0  0  0  0  0
    4.5310   10.0790   54.0630 C   0  0  0  0  0  0  0  0  0  0  0  0
    1.1210   -0.0170   51.6680 C   0  0  0  0  0  0  0  0  0  0  0  0
    2.5330    4.7900   51.5190 C   0  0  0  0  0  0  0  0  0  0  0  0
    2.1330    3.1870   49.6900 C   0  0  0  0  0  0  0  0  0  0  0  0
    3.9770    8.7580   53.7840 C   0  0  0  0  0  0  0  0  0  0  0  0
    0.4640    0.4490   50.4700 C   0  0  0  0  0  0  0  0  0  0  0  0
    2.9730    6.0740   52.1600 C   0  0  0  0  0  0  0  0  0  0  0  0
    1.5400    2.7160   48.4190 C   0  0  0  0  0  0  0  0  0  0  0  0
    0.0510    6.6080   52.1890 C   0  0  0  0  0  0  0  0  0  0  0  0
    1.1250    7.5590   54.2980 C   0  0  0  0  0  0  0  0  0  0  0  0
    0.4480    9.0740   52.5850 C   0  0  0  0  0  0  0  0  0  0  0  0
   -0.7420    0.6100   47.3260 C   0  0  0  0  0  0  0  0  0  0  0  0
    0.7990    1.2360   45.6080 C   0  0  0  0  0  0  0  0  0  0  0  0
    1.4220   -0.7570   46.8470 C   0  0  0  0  0  0  0  0  0  0  0  0
    1.0190    7.6440   52.7810 C   0  0  0  0  0  0  0  0  0  0  0  0
    0.7290    0.6140   47.0040 C   0  0  0  0  0  0  0  0  0  0  0  0
    3.3160    8.5400   52.5740 N   0  0  0  0  0  0  0  0  0  0  0  0
    1.2170    0.3610   49.3400 N   0  0  0  0  0  0  0  0  0  0  0  0
    2.3940    7.3730   52.2490 N   0  0  0  0  0  0  0  0  0  0  0  0
    1.2570    1.3340   48.2100 N   0  0  0  0  0  0  0  0  0  0  0  0
    4.0280    7.8780   54.6460 O   0  0  0  0  0  0  0  0  0  0  0  0
   -0.6370    0.9860   50.4710 O   0  0  0  0  0  0  0  0  0  0  0  0
    4.0160    5.9680   52.7990 O   0  0  0  0  0  0  0  0  0  0  0  0
    1.2870    3.5000   47.5130 O   0  0  0  0  0  0  0  0  0  0  0  0
  1  3  2  0
  1  4  1  0
  2  5  2  0
  2  6  1  0
  3  8  1  0
  4  9  2  0
  5 10  1  0
  6 11  2  0
  7 12  2  0
  7 13  1  0
  8 15  2  0
  9 15  1  0
 10 16  2  0
 11 16  1  0
 12 17  1  0
 13 18  2  0
 14 17  2  0
 14 18  1  0
 15 19  1  0
 16 20  1  0
 17 21  1  0
 18 22  1  0
 19 31  1  0
 19 35  2  0
 20 32  1  0
 20 36  2  0
 21 33  1  0
 21 37  2  0
 22 34  1  0
 22 38  2  0
 23 29  1  0
 24 29  1  0
 25 29  1  0
 26 30  1  0
 27 30  1  0
 28 30  1  0
 29 33  1  0
 30 34  1  0
 31 33  1  0
 32 34  1  0
M  END
>  <washed_aromatic_smiles>  (105) 
CC(C)(C)N(C(=O)c1cccc(c1)C(=O)N(C(C)(C)C)NC(=O)c2ccccc2)NC(=O)c3ccccc3

>  <name>  (105) 
neg237145

$$$$
neg319051
     RDKit          3D

 28 29  0  0  0  0  0  0  0  0999 V2000
   -0.3000    0.6150   47.6540 C   0  0  0  0  0  0  0  0  0  0  0  0
    0.9070    1.2760   47.6070 C   0  0  0  0  0  0  0  0  0  0  0  0
   -0.6710   -0.0540   48.8080 C   0  0  0  0  0  0  0  0  0  0  0  0
    3.0000    3.6030   52.7310 C   0  0  0  0  0  0  0  0  0  0  0  0
    3.1930    4.9610   52.5060 C   0  0  0  0  0  0  0  0  0  0  0  0
    1.7820    1.1730   48.6810 C   0  0  0  0  0  0  0  0  0  0  0  0
    0.1900   -0.0890   49.9010 C   0  0  0  0  0  0  0  0  0  0  0  0
    1.9680    3.3210   50.6490 C   0  0  0  0  0  0  0  0  0  0  0  0
    2.4750    2.7350   51.8120 C   0  0  0  0  0  0  0  0  0  0  0  0
    2.7980    5.5000   51.3010 C   0  0  0  0  0  0  0  0  0  0  0  0
    2.2620    4.6420   50.3420 C   0  0  0  0  0  0  0  0  0  0  0  0
    1.4640    0.4360   49.8210 C   0  0  0  0  0  0  0  0  0  0  0  0
    3.2370    0.2130   54.6850 C   0  0  0  0  0  0  0  0  0  0  0  0
    4.0190    1.0650   58.2090 C   0  0  0  0  0  0  0  0  0  0  0  0
    4.8930   -1.0810   57.0140 C   0  0  0  0  0  0  0  0  0  0  0  0
    6.0430    0.9640   57.0190 C   0  0  0  0  0  0  0  0  0  0  0  0
    2.7480    7.8120   52.2000 C   0  0  0  0  0  0  0  0  0  0  0  0
    3.2800    5.4180   48.3940 C   0  0  0  0  0  0  0  0  0  0  0  0
    2.1790    0.9200   53.7980 C   0  0  0  0  0  0  0  0  0  0  0  0
    4.6160    0.4380   56.9250 C   0  0  0  0  0  0  0  0  0  0  0  0
    3.8380    0.8970   55.7140 N   0  0  0  0  0  0  0  0  0  0  0  0
    2.3420    1.3540   52.2840 N   0  0  0  0  0  0  0  0  0  0  0  0
    3.3880   -0.9920   54.5390 O   0  0  0  0  0  0  0  0  0  0  0  0
    2.3380   -1.1160   51.7550 O   0  0  0  0  0  0  0  0  0  0  0  0
    3.9650    0.3060   50.6860 O   0  0  0  0  0  0  0  0  0  0  0  0
    2.8790    6.8650   51.0930 O   0  0  0  0  0  0  0  0  0  0  0  0
    2.0600    5.0530   49.0680 O   0  0  0  0  0  0  0  0  0  0  0  0
    2.6400    0.1440   51.1710 S   0  0  0  0  0  0  0  0  0  0  0  0
  1  2  2  0
  1  3  1  0
  2  6  1  0
  3  7  2  0
  4  5  2  0
  4  9  1  0
  5 10  1  0
  6 12  2  0
  7 12  1  0
  8  9  2  0
  8 11  1  0
  9 22  1  0
 10 11  2  0
 10 26  1  0
 11 27  1  0
 12 28  1  0
 13 19  1  0
 13 21  1  0
 13 23  2  0
 14 20  1  0
 15 20  1  0
 16 20  1  0
 17 26  1  0
 18 27  1  0
 19 22  1  0
 20 21  1  0
 22 28  1  0
 24 28  2  0
 25 28  2  0
M  END
>  <washed_aromatic_smiles>  (106) 
CC(C)(C)NC(=O)CN(c1ccc(c(c1)OC)OC)S(=O)(=O)c2ccccc2

>  <name>  (106) 
neg319051

$$$$
neg272696
     RDKit          3D

 25 26  0  0  0  0  0  0  0  0999 V2000
    1.7110    7.4210   54.0730 C   0  0  0  0  0  0  0  0  0  0  0  0
    3.0390    7.9540   52.1750 C   0  0  0  0  0  0  0  0  0  0  0  0
    1.8770    1.1850   50.2180 C   0  0  0  0  0  0  0  0  0  0  0  0
    3.0390    1.5960   52.3070 C   0  0  0  0  0  0  0  0  0  0  0  0
    2.4130    8.3580   54.8250 C   0  0  0  0  0  0  0  0  0  0  0  0
    3.7450    8.8750   52.9350 C   0  0  0  0  0  0  0  0  0  0  0  0
    1.7280    2.5580   50.0410 C   0  0  0  0  0  0  0  0  0  0  0  0
    2.8730    2.9660   52.1180 C   0  0  0  0  0  0  0  0  0  0  0  0
    2.1250    7.0500   52.7670 C   0  0  0  0  0  0  0  0  0  0  0  0
    2.5360    0.7270   51.3500 C   0  0  0  0  0  0  0  0  0  0  0  0
    2.2200    3.4630   50.9910 C   0  0  0  0  0  0  0  0  0  0  0  0
    3.5330    9.0170   54.3080 C   0  0  0  0  0  0  0  0  0  0  0  0
    4.4860    7.3750   57.4940 C   0  0  0  0  0  0  0  0  0  0  0  0
    6.7220    8.0030   58.1860 C   0  0  0  0  0  0  0  0  0  0  0  0
    4.9590    9.6600   58.5120 C   0  0  0  0  0  0  0  0  0  0  0  0
    5.4280    8.5570   57.5520 C   0  0  0  0  0  0  0  0  0  0  0  0
    1.6950    5.9070   52.1890 N   0  0  0  0  0  0  0  0  0  0  0  0
    5.6340    9.0590   56.1730 N   0  0  0  0  0  0  0  0  0  0  0  0
    0.8000    5.3390   49.9310 O   0  0  0  0  0  0  0  0  0  0  0  0
    3.2030    5.7200   50.1620 O   0  0  0  0  0  0  0  0  0  0  0  0
    5.4210   10.8200   54.3730 O   0  0  0  0  0  0  0  0  0  0  0  0
    3.8020   10.8450   56.1700 O   0  0  0  0  0  0  0  0  0  0  0  0
    2.6900   -0.6090   51.5290 F   0  0  0  0  0  0  0  0  0  0  0  0
    1.9810    5.2280   50.7290 S   0  0  2  0  0  0  0  0  0  0  0  0
    4.6150   10.0760   55.2870 S   0  0  0  0  0  0  0  0  0  0  0  0
  1  5  2  0
  1  9  1  0
  2  6  1  0
  2  9  2  0
  3  7  2  0
  3 10  1  0
  4  8  1  0
  4 10  2  0
  5 12  1  0
  6 12  2  0
  7 11  1  0
  8 11  2  0
  9 17  1  0
 10 23  1  0
 11 24  1  0
 12 25  1  0
 13 16  1  0
 14 16  1  0
 15 16  1  0
 16 18  1  0
 17 24  2  0
 18 25  1  0
 19 24  2  0
 24 20  1  6
 21 25  2  0
 22 25  2  0
M  CHG  1  20  -1
M  END
>  <washed_aromatic_smiles>  (107) 
CC(C)(C)NS(=O)(=O)c1ccc(cc1)NS(=O)(=O)c2ccc(cc2)F

>  <name>  (107) 
neg272696

$$$$
neg245096_neg310850
     RDKit          3D

 27 28  0  0  1  0  0  0  0  0999 V2000
    2.2940    5.1360   49.9680 C   0  0  0  0  0  0  0  0  0  0  0  0
    3.2570    5.8110   50.7110 C   0  0  0  0  0  0  0  0  0  0  0  0
    0.9500    5.3600   50.2680 C   0  0  0  0  0  0  0  0  0  0  0  0
    2.8590    6.6780   51.7430 C   0  0  0  0  0  0  0  0  0  0  0  0
    0.5570    6.1800   51.3490 C   0  0  0  0  0  0  0  0  0  0  0  0
    1.5190    6.8480   52.1110 C   0  0  0  0  0  0  0  0  0  0  0  0
    6.2590    9.2750   58.9970 C   0  0  0  0  0  0  0  0  0  0  0  0
    3.0280    7.6440   54.9370 C   0  0  0  0  0  0  0  0  0  0  0  0
    4.1340    9.9480   53.5620 C   0  0  0  0  0  0  0  0  0  0  0  0
    4.1240    9.6840   57.8850 C   0  0  0  0  0  0  0  0  0  0  0  0
    5.0100    7.2490   58.1120 C   0  0  0  0  0  0  0  0  0  0  0  0
    3.0500    9.1480   56.9380 C   0  0  0  0  0  0  0  0  0  0  0  0
    4.6790    7.2450   56.6470 C   0  0  0  0  0  0  0  0  0  0  0  0
    4.9450    8.6450   58.7030 C   0  0  0  0  0  0  0  0  0  0  0  0
    4.1710   13.0820   55.2670 C   0  0  0  0  0  0  0  0  0  0  0  0
    6.1260   11.7490   54.8730 C   0  0  0  0  0  0  0  0  0  0  0  0
    5.3740   13.2360   53.0510 C   0  0  0  0  0  0  0  0  0  0  0  0
    1.0780    7.7710   53.2540 C   0  0  0  0  0  0  0  0  0  0  0  0
    2.1450    8.5420   54.0780 C   0  0  2  0  0  0  0  0  0  0  0  0
    4.9420   12.3290   54.1680 C   0  0  0  0  0  0  0  0  0  0  0  0
    3.5180    8.0110   56.1490 N   0  0  0  0  0  0  0  0  0  0  0  0
    2.8940    9.4830   53.2290 N   0  0  0  0  0  0  0  0  0  0  0  0
    6.1650   10.4030   59.5320 O   0  0  0  0  0  0  0  0  0  0  0  0
    3.3700    6.5700   54.4740 O   0  0  0  0  0  0  0  0  0  0  0  0
    5.0770    9.2500   53.9180 O   0  0  0  0  0  0  0  0  0  0  0  0
    7.2960    8.6550   58.6860 O   0  0  0  0  0  0  0  0  0  0  0  0
    4.1760   11.2900   53.5130 O   0  0  0  0  0  0  0  0  0  0  0  0
  1  2  2  0
  1  3  1  0
  2  4  1  0
  3  5  2  0
  4  6  2  0
  5  6  1  0
  6 18  1  0
  7 14  1  0
  7 23  1  0
  7 26  2  0
  8 19  1  0
  8 21  1  0
  8 24  2  0
  9 22  1  0
  9 25  2  0
  9 27  1  0
 10 12  1  0
 10 14  1  0
 11 13  1  0
 11 14  1  0
 12 21  1  0
 13 21  1  0
 15 20  1  0
 16 20  1  0
 17 20  1  0
 19 18  1  6
 19 22  1  0
 20 27  1  0
M  CHG  1  23  -1
M  END
>  <washed_aromatic_smiles>  (108) 
CC(C)(C)OC(=O)N[C@@H](Cc1ccccc1)C(=O)N2CCC(CC2)C(=O)O_CC(C)(C)OC(=O)N[C@H](Cc1ccccc1)C(=O)N2CCC(CC2)C(=O)O

>  <name>  (108) 
neg245096_neg310850

$$$$
neg228265
     RDKit          3D

 29 30  0  0  0  0  0  0  0  0999 V2000
    1.4080    0.3580   52.4720 C   0  0  0  0  0  0  0  0  0  0  0  0
    2.5010    1.0090   51.9200 C   0  0  0  0  0  0  0  0  0  0  0  0
    0.2190    0.2980   51.7570 C   0  0  0  0  0  0  0  0  0  0  0  0
    2.3870    1.6030   50.6680 C   0  0  0  0  0  0  0  0  0  0  0  0
    0.1130    0.8760   50.5010 C   0  0  0  0  0  0  0  0  0  0  0  0
    3.4820    9.5180   53.5410 C   0  0  0  0  0  0  0  0  0  0  0  0
    2.6320    9.2800   55.7830 C   0  0  0  0  0  0  0  0  0  0  0  0
    4.3410   10.5090   53.9700 C   0  0  0  0  0  0  0  0  0  0  0  0
    3.4980   10.2680   56.2230 C   0  0  0  0  0  0  0  0  0  0  0  0
    1.1930    1.5580   49.9500 C   0  0  0  0  0  0  0  0  0  0  0  0
    2.5980    8.9370   54.4370 C   0  0  0  0  0  0  0  0  0  0  0  0
    4.3260   10.9300   55.3100 C   0  0  0  0  0  0  0  0  0  0  0  0
    1.5630    3.6900   48.6390 C   0  0  0  0  0  0  0  0  0  0  0  0
    3.3820    6.1800   49.3220 C   0  0  0  0  0  0  0  0  0  0  0  0
    2.9300    6.0690   52.7670 C   0  0  0  0  0  0  0  0  0  0  0  0
    6.3100   12.3370   54.8870 C   0  0  0  0  0  0  0  0  0  0  0  0
    5.3740   12.2880   57.1930 C   0  0  0  0  0  0  0  0  0  0  0  0
    4.2310   13.4090   55.2040 C   0  0  0  0  0  0  0  0  0  0  0  0
    1.0610    2.2600   48.6030 C   0  0  0  0  0  0  0  0  0  0  0  0
    1.7090    7.8640   53.9220 C   0  0  0  0  0  0  0  0  0  0  0  0
    3.6780    4.7000   49.2230 C   0  0  0  0  0  0  0  0  0  0  0  0
    2.1450    6.0420   51.4790 C   0  0  0  0  0  0  0  0  0  0  0  0
    5.0440   12.2150   55.6920 C   0  0  0  0  0  0  0  0  0  0  0  0
    2.8520    3.8690   48.3590 N   0  0  0  0  0  0  0  0  0  0  0  0
    2.9040    6.7140   50.4480 N   0  0  0  0  0  0  0  0  0  0  0  0
    0.8850    4.5970   49.1000 O   0  0  0  0  0  0  0  0  0  0  0  0
    3.7010    6.9030   48.3960 O   0  0  0  0  0  0  0  0  0  0  0  0
    3.9080    5.3570   52.8950 O   0  0  0  0  0  0  0  0  0  0  0  0
    2.5510    6.7490   53.8320 O   0  0  0  0  0  0  0  0  0  0  0  0
  1  2  2  0
  1  3  1  0
  2  4  1  0
  3  5  2  0
  4 10  2  0
  5 10  1  0
  6  8  2  0
  6 11  1  0
  7  9  1  0
  7 11  2  0
  8 12  1  0
  9 12  2  0
 10 19  1  0
 11 20  1  0
 12 23  1  0
 13 19  1  0
 13 24  1  0
 13 26  2  0
 14 21  1  0
 14 25  1  0
 14 27  2  0
 15 22  1  0
 15 28  2  0
 15 29  1  0
 16 23  1  0
 17 23  1  0
 18 23  1  0
 20 29  1  0
 21 24  1  0
 22 25  1  0
M  END
>  <washed_aromatic_smiles>  (109) 
CC(C)(C)c1ccc(cc1)COC(=O)CNC(=O)CNC(=O)Cc2ccccc2

>  <name>  (109) 
neg228265

$$$$
neg248440
     RDKit          3D

 28 30  0  0  0  0  0  0  0  0999 V2000
    1.1260    3.6120   47.6130 C   0  0  0  0  0  0  0  0  0  0  0  0
    2.8420    2.6580   48.9470 C   0  0  0  0  0  0  0  0  0  0  0  0
    1.5680    4.8770   47.9540 C   0  0  0  0  0  0  0  0  0  0  0  0
    3.2120    3.9140   49.3480 C   0  0  0  0  0  0  0  0  0  0  0  0
    2.1860    8.6710   55.0010 C   0  0  0  0  0  0  0  0  0  0  0  0
    4.3700    7.9060   54.4400 C   0  0  0  0  0  0  0  0  0  0  0  0
    1.6380    7.8920   53.9790 C   0  0  0  0  0  0  0  0  0  0  0  0
    3.8110    7.0400   53.5170 C   0  0  0  0  0  0  0  0  0  0  0  0
    1.7110    2.5140   48.1820 C   0  0  0  0  0  0  0  0  0  0  0  0
    2.6400    5.0380   48.8340 C   0  0  0  0  0  0  0  0  0  0  0  0
    3.5690    8.7230   55.2200 C   0  0  0  0  0  0  0  0  0  0  0  0
    2.4660    7.0790   53.2100 C   0  0  0  0  0  0  0  0  0  0  0  0
    0.9880    1.2930   48.2870 C   0  0  0  0  0  0  0  0  0  0  0  0
    0.1650    1.3090   51.9270 C   0  0  0  0  0  0  0  0  0  0  0  0
   -0.0350   -0.0600   51.4690 C   0  0  0  0  0  0  0  0  0  0  0  0
    1.0700    1.7490   50.8170 C   0  0  0  0  0  0  0  0  0  0  0  0
   -0.1110   -0.0520   49.9630 C   0  0  0  0  0  0  0  0  0  0  0  0
    5.0570   10.7260   55.5470 C   0  0  0  0  0  0  0  0  0  0  0  0
    5.2120    8.7800   57.1510 C   0  0  0  0  0  0  0  0  0  0  0  0
    3.2670   10.2700   57.2160 C   0  0  0  0  0  0  0  0  0  0  0  0
    3.3430    6.2830   49.3180 C   0  0  0  0  0  0  0  0  0  0  0  0
    4.2640    9.6170   56.2620 C   0  0  0  0  0  0  0  0  0  0  0  0
    0.6790    1.0230   49.5850 N   0  0  0  0  0  0  0  0  0  0  0  0
    2.8920    6.8670   50.5850 N   0  0  0  0  0  0  0  0  0  0  0  0
    0.6190    0.5830   47.3550 O   0  0  0  0  0  0  0  0  0  0  0  0
    2.4120    4.7880   51.9680 O   0  0  0  0  0  0  0  0  0  0  0  0
    0.5950    6.3300   51.5310 O   0  0  0  0  0  0  0  0  0  0  0  0
    1.9850    6.1320   51.7710 S   0  0  0  0  0  0  0  0  0  0  0  0
  1  3  2  0
  1  9  1  0
  2  4  1  0
  2  9  2  0
  3 10  1  0
  4 10  2  0
  5  7  2  0
  5 11  1  0
  6  8  1  0
  6 11  2  0
  7 12  1  0
  8 12  2  0
  9 13  1  0
 10 21  1  0
 11 22  1  0
 12 28  1  0
 13 23  1  0
 13 25  2  0
 14 15  1  0
 14 16  1  0
 15 17  1  0
 16 23  1  0
 17 23  1  0
 18 22  1  0
 19 22  1  0
 20 22  1  0
 21 24  1  0
 24 28  1  0
 26 28  2  0
 27 28  2  0
M  END
>  <washed_aromatic_smiles>  (110) 
CC(C)(C)c1ccc(cc1)S(=O)(=O)NCc2ccc(cc2)C(=O)N3CCCC3

>  <name>  (110) 
neg248440

$$$$
neg173099
     RDKit          3D

 26 28  0  0  0  0  0  0  0  0999 V2000
    1.6450    3.9140   49.4630 C   0  0  0  0  0  0  0  0  0  0  0  0
    2.7530    3.3110   51.5030 C   0  0  0  0  0  0  0  0  0  0  0  0
    3.1260   -1.6660   53.7180 C   0  0  0  0  0  0  0  0  0  0  0  0
    2.2110   -1.3900   52.7330 C   0  0  0  0  0  0  0  0  0  0  0  0
    1.3240    2.5840   49.2360 C   0  0  0  0  0  0  0  0  0  0  0  0
    2.5400    1.9830   51.2120 C   0  0  0  0  0  0  0  0  0  0  0  0
    1.5830    0.5580   53.9590 C   0  0  0  0  0  0  0  0  0  0  0  0
    2.3010    4.2940   50.6410 C   0  0  0  0  0  0  0  0  0  0  0  0
    3.4000   -0.7970   54.7470 C   0  0  0  0  0  0  0  0  0  0  0  0
    2.6820    0.3520   54.7820 C   0  0  0  0  0  0  0  0  0  0  0  0
    1.3660   -0.2610   52.8300 C   0  0  0  0  0  0  0  0  0  0  0  0
    1.6900    1.6260   50.1720 C   0  0  0  0  0  0  0  0  0  0  0  0
    4.3000    0.4590   56.3860 C   0  0  0  0  0  0  0  0  0  0  0  0
    3.1710    6.1310   52.2800 C   0  0  0  0  0  0  0  0  0  0  0  0
    1.0120    6.2680   51.2460 C   0  0  0  0  0  0  0  0  0  0  0  0
    3.3210    6.3640   49.8530 C   0  0  0  0  0  0  0  0  0  0  0  0
    5.4550   -1.6480   56.2120 C   0  0  0  0  0  0  0  0  0  0  0  0
    2.7040    2.2140   56.3340 C   0  0  0  0  0  0  0  0  0  0  0  0
    2.4460    5.7660   50.9700 C   0  0  0  0  0  0  0  0  0  0  0  0
    4.3530   -0.7680   55.8200 N   0  0  0  0  0  0  0  0  0  0  0  0
    3.2940    1.1220   55.7400 N   0  0  0  0  0  0  0  0  0  0  0  0
    0.4730    0.0870   51.8910 N   0  0  0  0  0  0  0  0  0  0  0  0
    4.9980    0.8880   57.3220 O   0  0  0  0  0  0  0  0  0  0  0  0
    1.6860   -0.9790   49.9350 O   0  0  0  0  0  0  0  0  0  0  0  0
   -0.4060    0.2100   49.5510 O   0  0  0  0  0  0  0  0  0  0  0  0
    0.8080    0.0900   50.3060 S   0  0  2  0  0  0  0  0  0  0  0  0
  1  5  2  0
  1  8  1  0
  2  6  1  0
  2  8  2  0
  3  4  2  0
  3  9  1  0
  4 11  1  0
  5 12  1  0
  6 12  2  0
  7 10  1  0
  7 11  2  0
  8 19  1  0
  9 10  2  0
  9 20  1  0
 10 21  1  0
 11 22  1  0
 12 26  1  0
 13 20  1  0
 13 21  1  0
 13 23  2  0
 14 19  1  0
 15 19  1  0
 16 19  1  0
 17 20  1  0
 18 21  1  0
 22 26  2  0
 24 26  2  0
 26 25  1  6
M  CHG  1  25  -1
M  END
>  <washed_aromatic_smiles>  (111) 
CC(C)(C)c1ccc(cc1)S(=O)(=O)Nc2ccc3c(c2)n(c(=O)n3C)C

>  <name>  (111) 
neg173099

$$$$
neg86433
     RDKit          3D

 30 31  0  0  0  0  0  0  0  0999 V2000
    3.7630   10.6750   57.6600 C   0  0  0  0  0  0  0  0  0  0  0  0
    5.1650    8.8310   58.3810 C   0  0  0  0  0  0  0  0  0  0  0  0
    2.3530    5.0810   49.8150 C   0  0  0  0  0  0  0  0  0  0  0  0
    2.4330    3.0670   51.1620 C   0  0  0  0  0  0  0  0  0  0  0  0
    4.6340   11.5730   58.2240 C   0  0  0  0  0  0  0  0  0  0  0  0
    5.9570    9.7390   59.0580 C   0  0  0  0  0  0  0  0  0  0  0  0
    1.8080    4.3580   48.7620 C   0  0  0  0  0  0  0  0  0  0  0  0
    1.9000    2.3370   50.1040 C   0  0  0  0  0  0  0  0  0  0  0  0
    4.0960    9.3170   57.6430 C   0  0  0  0  0  0  0  0  0  0  0  0
    2.6180    4.4470   51.0270 C   0  0  0  0  0  0  0  0  0  0  0  0
    5.6850   11.1150   58.9800 C   0  0  0  0  0  0  0  0  0  0  0  0
    1.5690    2.9930   48.9120 C   0  0  0  0  0  0  0  0  0  0  0  0
    2.3330    8.8160   56.0990 C   0  0  0  0  0  0  0  0  0  0  0  0
    2.7960    6.4820   52.4840 C   0  0  0  0  0  0  0  0  0  0  0  0
    4.5890   10.8490   54.6490 C   0  0  0  0  0  0  0  0  0  0  0  0
    5.0530   10.0270   52.4120 C   0  0  0  0  0  0  0  0  0  0  0  0
    6.6470   13.4680   59.2430 C   0  0  0  0  0  0  0  0  0  0  0  0
    0.5030    0.9680   47.8750 C   0  0  0  0  0  0  0  0  0  0  0  0
    2.2650    8.7610   54.5840 C   0  0  0  0  0  0  0  0  0  0  0  0
    3.6680    7.0810   53.5800 C   0  0  0  0  0  0  0  0  0  0  0  0
    6.0720    8.9570   54.4280 C   0  0  0  0  0  0  0  0  0  0  0  0
    4.7750    9.5460   53.8410 C   0  0  0  0  0  0  0  0  0  0  0  0
    3.4990    8.4680   56.7020 N   0  0  0  0  0  0  0  0  0  0  0  0
    3.1250    5.1910   52.1290 N   0  0  0  0  0  0  0  0  0  0  0  0
    3.5320    8.5340   53.8510 N   0  0  0  0  0  0  0  0  0  0  0  0
    1.3990    9.1370   56.8060 O   0  0  0  0  0  0  0  0  0  0  0  0
    1.8370    7.0410   51.9850 O   0  0  0  0  0  0  0  0  0  0  0  0
    6.6610    7.8910   53.7610 O   0  0  0  0  0  0  0  0  0  0  0  0
    6.5050   12.0590   59.5740 O   0  0  0  0  0  0  0  0  0  0  0  0
    0.9860    2.3310   47.8450 O   0  0  0  0  0  0  0  0  0  0  0  0
  1  5  2  0
  1  9  1  0
  2  6  1  0
  2  9  2  0
  3  7  2  0
  3 10  1  0
  4  8  1  0
  4 10  2  0
  5 11  1  0
  6 11  2  0
  7 12  1  0
  8 12  2  0
  9 23  1  0
 10 24  1  0
 11 29  1  0
 12 30  1  0
 13 19  1  0
 13 23  1  0
 13 26  2  0
 14 20  1  0
 14 24  1  0
 14 27  2  0
 15 22  1  0
 16 22  1  0
 17 29  1  0
 18 30  1  0
 19 25  1  0
 20 25  1  0
 21 22  1  0
 21 28  1  0
 22 25  1  0
M  END
>  <washed_aromatic_smiles>  (112) 
CC(C)(CO)N(CC(=O)Nc1ccc(cc1)OC)CC(=O)Nc2ccc(cc2)OC

>  <name>  (112) 
neg86433

$$$$
neg303745
     RDKit          3D

 26 28  0  0  0  0  0  0  0  0999 V2000
    6.3600   13.1710   59.6940 C   0  0  0  0  0  0  0  0  0  0  0  0
    6.2380   14.2830   58.8760 C   0  0  0  0  0  0  0  0  0  0  0  0
    5.9590   11.9110   59.2380 C   0  0  0  0  0  0  0  0  0  0  0  0
    5.6600   14.1470   57.6280 C   0  0  0  0  0  0  0  0  0  0  0  0
    2.2760    9.1790   56.7260 C   0  0  0  0  0  0  0  0  0  0  0  0
    1.2930    8.8590   54.5510 C   0  0  0  0  0  0  0  0  0  0  0  0
    1.0330    8.9580   57.2990 C   0  0  0  0  0  0  0  0  0  0  0  0
    0.0750    8.5760   55.1360 C   0  0  0  0  0  0  0  0  0  0  0  0
    5.5080   11.7790   57.9270 C   0  0  0  0  0  0  0  0  0  0  0  0
    5.3270   12.8940   57.1460 C   0  0  0  0  0  0  0  0  0  0  0  0
    2.4200    9.0760   55.3400 C   0  0  0  0  0  0  0  0  0  0  0  0
   -0.0590    8.6090   56.5320 C   0  0  0  0  0  0  0  0  0  0  0  0
    5.2350   10.6250   57.1090 C   0  0  0  0  0  0  0  0  0  0  0  0
    4.8060   12.4840   55.8720 C   0  0  0  0  0  0  0  0  0  0  0  0
    4.2060    8.0170   54.0250 C   0  0  0  0  0  0  0  0  0  0  0  0
    2.7220    7.6520   51.9600 C   0  0  0  0  0  0  0  0  0  0  0  0
    3.7850    5.6670   52.9590 C   0  0  0  0  0  0  0  0  0  0  0  0
   -1.5300    8.0790   58.6140 C   0  0  0  0  0  0  0  0  0  0  0  0
    4.5340   10.3340   54.6640 C   0  0  0  0  0  0  0  0  0  0  0  0
    3.2550    7.0550   53.2670 C   0  0  0  0  0  0  0  0  0  0  0  0
    4.7430   11.0950   55.8870 N   0  0  0  0  0  0  0  0  0  0  0  0
    3.7120    9.1050   54.7330 N   0  0  0  0  0  0  0  0  0  0  0  0
    5.4790    9.4490   57.3510 O   0  0  0  0  0  0  0  0  0  0  0  0
    4.5080   13.1770   54.9070 O   0  0  0  0  0  0  0  0  0  0  0  0
    5.4190    7.9170   53.9750 O   0  0  0  0  0  0  0  0  0  0  0  0
   -1.1760    8.1620   57.2130 O   0  0  0  0  0  0  0  0  0  0  0  0
  1  2  2  0
  1  3  1  0
  2  4  1  0
  3  9  2  0
  4 10  2  0
  5  7  2  0
  5 11  1  0
  6  8  1  0
  6 11  2  0
  7 12  1  0
  8 12  2  0
  9 10  1  0
  9 13  1  0
 10 14  1  0
 11 22  1  0
 12 26  1  0
 13 21  1  0
 13 23  2  0
 14 21  1  0
 14 24  2  0
 15 20  1  0
 15 22  1  0
 15 25  2  0
 16 20  1  0
 17 20  1  0
 18 26  1  0
 19 21  1  0
 19 22  1  0
M  END
>  <washed_aromatic_smiles>  (113) 
CC(C)C(=O)N(CN1C(=O)c2ccccc2C1=O)c3ccc(cc3)OC

>  <name>  (113) 
neg303745

$$$$
neg165952
     RDKit          3D

 28 30  0  0  0  0  0  0  0  0999 V2000
    4.2040   10.0680   55.6120 C   0  0  0  0  0  0  0  0  0  0  0  0
    0.8000    2.4080   47.7360 C   0  0  0  0  0  0  0  0  0  0  0  0
    1.1230    3.7600   47.7640 C   0  0  0  0  0  0  0  0  0  0  0  0
    4.7350   10.3070   54.3450 C   0  0  0  0  0  0  0  0  0  0  0  0
    3.2320    9.0830   55.7870 C   0  0  0  0  0  0  0  0  0  0  0  0
    0.9920    1.6380   48.8750 C   0  0  0  0  0  0  0  0  0  0  0  0
    1.6410    4.3590   48.8830 C   0  0  0  0  0  0  0  0  0  0  0  0
    4.3070    9.5560   53.2550 C   0  0  0  0  0  0  0  0  0  0  0  0
    2.8050    8.3250   54.7010 C   0  0  0  0  0  0  0  0  0  0  0  0
    1.5090    2.2400   50.0260 C   0  0  0  0  0  0  0  0  0  0  0  0
    1.8130    3.6230   50.0350 C   0  0  0  0  0  0  0  0  0  0  0  0
    3.3600    8.5510   53.4430 C   0  0  0  0  0  0  0  0  0  0  0  0
    2.9360    0.0720   54.8860 C   0  0  0  0  0  0  0  0  0  0  0  0
    2.9060    5.5160   51.2620 C   0  0  0  0  0  0  0  0  0  0  0  0
    3.1900    1.3810   51.4020 C   0  0  0  0  0  0  0  0  0  0  0  0
    1.0680    0.2690   51.5820 C   0  0  0  0  0  0  0  0  0  0  0  0
    3.3830    1.4610   52.8850 C   0  0  0  0  0  0  0  0  0  0  0  0
    1.7420   -0.4360   52.7910 C   0  0  0  0  0  0  0  0  0  0  0  0
    4.9580    0.6080   56.5370 C   0  0  0  0  0  0  0  0  0  0  0  0
    3.0800    2.3970   56.0530 C   0  0  0  0  0  0  0  0  0  0  0  0
    2.7990    6.3300   52.5370 C   0  0  0  0  0  0  0  0  0  0  0  0
    3.5900    0.9860   55.9570 C   0  0  0  0  0  0  0  0  0  0  0  0
    1.7810    1.4790   51.1580 N   0  0  0  0  0  0  0  0  0  0  0  0
    2.6760    0.4130   53.6070 N   0  0  0  0  0  0  0  0  0  0  0  0
    2.1850    4.3370   51.2210 N   0  0  0  0  0  0  0  0  0  0  0  0
    2.5540   -1.0130   55.2670 O   0  0  0  0  0  0  0  0  0  0  0  0
    3.6240    5.8310   50.3300 O   0  0  0  0  0  0  0  0  0  0  0  0
    2.9950    7.7660   52.3660 O   0  0  0  0  0  0  0  0  0  0  0  0
  1  4  2  0
  1  5  1  0
  2  3  2  0
  2  6  1  0
  3  7  1  0
  4  8  1  0
  5  9  2  0
  6 10  2  0
  7 11  2  0
  8 12  2  0
  9 12  1  0
 10 11  1  0
 10 23  1  0
 11 25  1  0
 12 28  1  0
 13 22  1  0
 13 24  1  0
 13 26  2  0
 14 21  1  0
 14 25  1  0
 14 27  2  0
 15 17  1  0
 15 23  1  0
 16 18  1  0
 16 23  1  0
 17 24  1  0
 18 24  1  0
 19 22  1  0
 20 22  1  0
 21 28  1  0
M  END
>  <washed_aromatic_smiles>  (114) 
CC(C)C(=O)N1CCN(CC1)c2ccccc2NC(=O)COc3ccccc3

>  <name>  (114) 
neg165952

$$$$
neg95482
     RDKit          3D

 25 27  0  0  0  0  0  0  0  0999 V2000
    0.6440    0.3370   51.2730 C   0  0  0  0  0  0  0  0  0  0  0  0
    2.7600    1.1850   50.4100 C   0  0  0  0  0  0  0  0  0  0  0  0
    0.0540    0.5590   50.0310 C   0  0  0  0  0  0  0  0  0  0  0  0
    2.1460    1.5430   49.2290 C   0  0  0  0  0  0  0  0  0  0  0  0
    2.9920    1.6510   54.6530 C   0  0  0  0  0  0  0  0  0  0  0  0
    1.9860    0.6850   51.4430 C   0  0  0  0  0  0  0  0  0  0  0  0
    0.8180    1.1800   49.0350 C   0  0  0  0  0  0  0  0  0  0  0  0
    3.2120    0.2760   54.6670 C   0  0  0  0  0  0  0  0  0  0  0  0
    2.8120    1.9780   53.3340 C   0  0  0  0  0  0  0  0  0  0  0  0
    3.0670    4.5850   52.3470 C   0  0  0  0  0  0  0  0  0  0  0  0
    3.1540    2.2550   56.0490 C   0  0  0  0  0  0  0  0  0  0  0  0
    3.9120   -0.2660   55.9030 C   0  0  0  0  0  0  0  0  0  0  0  0
    3.3890    5.1950   49.8670 C   0  0  0  0  0  0  0  0  0  0  0  0
    1.0910    5.0190   50.8660 C   0  0  0  0  0  0  0  0  0  0  0  0
    2.5460    5.3590   51.1420 C   0  0  0  0  0  0  0  0  0  0  0  0
    2.9120   -0.2970   53.5360 N   0  0  0  0  0  0  0  0  0  0  0  0
    2.5740    0.7660   52.7280 N   0  0  0  0  0  0  0  0  0  0  0  0
    2.8250    3.1860   52.3780 N   0  0  0  0  0  0  0  0  0  0  0  0
    0.2580    1.4560   47.7500 N   0  0  0  0  0  0  0  0  0  0  0  0
   -0.4600    0.6370   47.2140 O   0  0  0  0  0  0  0  0  0  0  0  0
    3.7300    5.1740   53.1750 O   0  0  0  0  0  0  0  0  0  0  0  0
    0.5090    2.5050   47.1870 O   0  0  0  0  0  0  0  0  0  0  0  0
    3.7550    0.9970   58.2840 O   0  0  0  0  0  0  0  0  0  0  0  0
    5.5890    1.5480   56.8150 O   0  0  0  0  0  0  0  0  0  0  0  0
    4.2360    1.1600   56.9570 S   0  0  0  0  0  0  0  0  0  0  0  0
  1  3  2  0
  1  6  1  0
  2  4  1  0
  2  6  2  0
  3  7  1  0
  4  7  2  0
  5  8  1  0
  5  9  2  0
  5 11  1  0
  6 17  1  0
  7 19  1  0
  8 12  1  0
  8 16  2  0
  9 17  1  0
  9 18  1  0
 10 15  1  0
 10 18  1  0
 10 21  2  0
 11 25  1  0
 12 25  1  0
 13 15  1  0
 14 15  1  0
 16 17  1  0
 19 20  1  0
 19 22  2  0
 23 25  2  0
 24 25  2  0
M  CHG  2  19   1  20  -1
M  END
>  <washed_aromatic_smiles>  (115) 
CC(C)C(=O)Nc1c2c(nn1c3ccc(cc3)[N+](=O)[O-])CS(=O)(=O)C2

>  <name>  (115) 
neg95482

$$$$
neg240795
     RDKit          3D

 25 26  0  0  1  0  0  0  0  0999 V2000
    1.6210    2.5510   49.9450 C   0  0  0  0  0  0  0  0  0  0  0  0
    2.9520    2.3400   51.9520 C   0  0  0  0  0  0  0  0  0  0  0  0
    1.7240    1.1820   49.7430 C   0  0  0  0  0  0  0  0  0  0  0  0
    3.1250    1.0050   51.7190 C   0  0  0  0  0  0  0  0  0  0  0  0
    2.1720    3.1270   51.0980 C   0  0  0  0  0  0  0  0  0  0  0  0
    2.4290    0.4170   50.6710 C   0  0  0  0  0  0  0  0  0  0  0  0
    1.8970    4.4940   51.4930 C   0  0  0  0  0  0  0  0  0  0  0  0
    2.3400    7.0230   53.9500 C   0  0  0  0  0  0  0  0  0  0  0  0
    5.1240   10.7800   58.6150 C   0  0  0  0  0  0  0  0  0  0  0  0
    5.1020   11.5200   57.2760 C   0  0  0  0  0  0  0  0  0  0  0  0
    5.4110    9.2860   58.4100 C   0  0  0  0  0  0  0  0  0  0  0  0
    4.0580   10.9100   56.3430 C   0  0  0  0  0  0  0  0  0  0  0  0
    4.3430    8.6700   57.5040 C   0  0  0  0  0  0  0  0  0  0  0  0
    4.1950    9.3860   56.1560 C   0  0  0  0  0  0  0  0  0  0  0  0
    3.3250    8.7210   51.9390 C   0  0  0  0  0  0  0  0  0  0  0  0
    3.2930    6.7510   50.1720 C   0  0  0  0  0  0  0  0  0  0  0  0
    2.3190   -1.5690   51.9000 C   0  0  0  0  0  0  0  0  0  0  0  0
    2.9350    8.8450   55.4550 C   0  0  0  0  0  0  0  0  0  0  0  0
    3.0150    6.4200   52.7180 C   0  0  2  0  0  0  0  0  0  0  0  0
    2.7880    7.3350   51.5370 C   0  0  0  0  0  0  0  0  0  0  0  0
    2.7950    5.0370   52.3760 N   0  0  0  0  0  0  0  0  0  0  0  0
    3.1970    7.5540   54.8390 N   0  0  0  0  0  0  0  0  0  0  0  0
    0.8950    5.1120   51.1530 O   0  0  0  0  0  0  0  0  0  0  0  0
    1.1290    7.2400   54.0040 O   0  0  0  0  0  0  0  0  0  0  0  0
    2.3710   -0.9280   50.6140 O   0  0  0  0  0  0  0  0  0  0  0  0
  1  3  2  0
  1  5  1  0
  2  4  1  0
  2  5  2  0
  3  6  1  0
  4  6  2  0
  5  7  1  0
  6 25  1  0
  7 21  1  0
  7 23  2  0
  8 19  1  0
  8 22  1  0
  8 24  2  0
  9 10  1  0
  9 11  1  0
 10 12  1  0
 11 13  1  0
 12 14  1  0
 13 14  1  0
 14 18  1  0
 15 20  1  0
 16 20  1  0
 17 25  1  0
 18 22  1  0
 19 20  1  0
 19 21  1  6
M  END
>  <washed_aromatic_smiles>  (116) 
CC(C)[C@@H](C(=O)NCC1CCCCC1)NC(=O)c2ccc(cc2)OC

>  <name>  (116) 
neg240795

$$$$
neg78961
     RDKit          3D

 25 26  0  0  1  0  0  0  0  0999 V2000
    2.1110    4.2110   48.6830 C   0  0  0  0  0  0  0  0  0  0  0  0
    1.8890    2.8880   49.0570 C   0  0  0  0  0  0  0  0  0  0  0  0
    2.5840    5.1410   49.6050 C   0  0  0  0  0  0  0  0  0  0  0  0
    5.0970   12.1090   54.0770 C   0  0  0  0  0  0  0  0  0  0  0  0
    2.1670    2.4890   50.3560 C   0  0  0  0  0  0  0  0  0  0  0  0
    5.3630   13.0680   55.0520 C   0  0  0  0  0  0  0  0  0  0  0  0
    4.8810   10.3920   55.8000 C   0  0  0  0  0  0  0  0  0  0  0  0
    2.7780    4.7950   50.9480 C   0  0  0  0  0  0  0  0  0  0  0  0
    4.8440   10.7810   54.4490 C   0  0  0  0  0  0  0  0  0  0  0  0
    2.6220    3.4330   51.2680 C   0  0  0  0  0  0  0  0  0  0  0  0
    5.4050   12.6790   56.3870 C   0  0  0  0  0  0  0  0  0  0  0  0
    5.1620   11.3610   56.7530 C   0  0  0  0  0  0  0  0  0  0  0  0
    3.1160    5.8280   51.9440 C   0  0  0  0  0  0  0  0  0  0  0  0
    3.9820    8.6240   53.4890 C   0  0  0  0  0  0  0  0  0  0  0  0
    1.0460    7.3330   54.1140 C   0  0  0  0  0  0  0  0  0  0  0  0
    0.3070    9.1220   52.6280 C   0  0  0  0  0  0  0  0  0  0  0  0
    2.7810    8.3440   52.5860 C   0  0  2  0  0  0  0  0  0  0  0  0
    1.4970    8.5840   53.4070 C   0  0  0  0  0  0  0  0  0  0  0  0
    4.4470    9.9180   53.3890 N   0  0  0  0  0  0  0  0  0  0  0  0
    2.7260    7.1330   51.7010 N   0  0  0  0  0  0  0  0  0  0  0  0
    3.7130    5.5830   52.9800 O   0  0  0  0  0  0  0  0  0  0  0  0
    4.3760    7.8910   54.3720 O   0  0  0  0  0  0  0  0  0  0  0  0
    2.9500    2.9590   52.4960 F   0  0  0  0  0  0  0  0  0  0  0  0
    5.6860   13.5930   57.3340 F   0  0  0  0  0  0  0  0  0  0  0  0
    5.1870   11.0100   58.0600 F   0  0  0  0  0  0  0  0  0  0  0  0
  1  2  2  0
  1  3  1  0
  2  5  1  0
  3  8  2  0
  4  6  2  0
  4  9  1  0
  5 10  2  0
  6 11  1  0
  7  9  2  0
  7 12  1  0
  8 10  1  0
  8 13  1  0
  9 19  1  0
 10 23  1  0
 11 12  2  0
 11 24  1  0
 12 25  1  0
 13 20  1  0
 13 21  2  0
 14 17  1  0
 14 19  1  0
 14 22  2  0
 15 18  1  0
 16 18  1  0
 17 18  1  0
 17 20  1  1
M  END
>  <washed_aromatic_smiles>  (117) 
CC(C)[C@@H](C(=O)Nc1ccc(c(c1)F)F)NC(=O)c2ccccc2F

>  <name>  (117) 
neg78961

$$$$
neg79037
     RDKit          3D

 27 28  0  0  1  0  0  0  0  0999 V2000
    6.5910   11.3100   52.8200 C   0  0  0  0  0  0  0  0  0  0  0  0
    5.7120   12.3750   52.9120 C   0  0  0  0  0  0  0  0  0  0  0  0
    6.2110   10.0340   53.1440 C   0  0  0  0  0  0  0  0  0  0  0  0
    1.7430    3.5880   48.7580 C   0  0  0  0  0  0  0  0  0  0  0  0
    2.1050    1.8190   50.3780 C   0  0  0  0  0  0  0  0  0  0  0  0
    2.1610    4.5280   49.6880 C   0  0  0  0  0  0  0  0  0  0  0  0
    2.5350    2.7630   51.3060 C   0  0  0  0  0  0  0  0  0  0  0  0
    4.3760   12.1080   53.0600 C   0  0  0  0  0  0  0  0  0  0  0  0
    4.8720    9.7580   53.3300 C   0  0  0  0  0  0  0  0  0  0  0  0
    1.6920    2.2330   49.1090 C   0  0  0  0  0  0  0  0  0  0  0  0
    2.5350    4.1240   50.9760 C   0  0  0  0  0  0  0  0  0  0  0  0
    3.9790   10.7770   53.1020 C   0  0  0  0  0  0  0  0  0  0  0  0
    4.4750    8.4490   53.7400 C   0  0  0  0  0  0  0  0  0  0  0  0
    0.6190    1.4510   46.9930 C   0  0  0  0  0  0  0  0  0  0  0  0
    2.8840    6.4310   51.9860 C   0  0  0  0  0  0  0  0  0  0  0  0
    0.9320    0.5700   45.8080 C   0  0  0  0  0  0  0  0  0  0  0  0
    0.3430    8.3280   54.2020 C   0  0  0  0  0  0  0  0  0  0  0  0
    0.0560    6.6890   52.2720 C   0  0  0  0  0  0  0  0  0  0  0  0
    2.3700    7.1460   53.2360 C   0  0  2  0  0  0  0  0  0  0  0  0
    0.9720    7.7280   52.9410 C   0  0  0  0  0  0  0  0  0  0  0  0
    1.2960    1.2320   48.1710 N   0  0  0  0  0  0  0  0  0  0  0  0
    2.8530    5.0470   52.0320 N   0  0  0  0  0  0  0  0  0  0  0  0
    3.1740    8.1430   53.9410 N   0  0  0  0  0  0  0  0  0  0  0  0
    5.3250    7.6550   53.9970 O   0  0  0  0  0  0  0  0  0  0  0  0
   -0.1620    2.3650   46.9020 O   0  0  0  0  0  0  0  0  0  0  0  0
    3.0820    7.0150   50.9420 O   0  0  0  0  0  0  0  0  0  0  0  0
    2.7340   10.3960   52.7850 F   0  0  0  0  0  0  0  0  0  0  0  0
  1  2  2  0
  1  3  1  0
  2  8  1  0
  3  9  2  0
  4  6  2  0
  4 10  1  0
  5  7  1  0
  5 10  2  0
  6 11  1  0
  7 11  2  0
  8 12  2  0
  9 12  1  0
  9 13  1  0
 10 21  1  0
 11 22  1  0
 12 27  1  0
 13 23  1  0
 13 24  2  0
 14 16  1  0
 14 21  1  0
 14 25  2  0
 15 19  1  0
 15 22  1  0
 15 26  2  0
 17 20  1  0
 18 20  1  0
 19 20  1  0
 19 23  1  6
M  END
>  <washed_aromatic_smiles>  (118) 
CC(C)[C@@H](C(=O)Nc1ccc(cc1)NC(=O)C)NC(=O)c2ccccc2F

>  <name>  (118) 
neg79037

$$$$
neg49142
     RDKit          3D

 26 28  0  0  0  0  0  0  0  0999 V2000
    0.2940    7.4790   52.6170 C   0  0  0  0  0  0  0  0  0  0  0  0
    0.5710    8.1560   53.8030 C   0  0  0  0  0  0  0  0  0  0  0  0
    1.2660    6.7820   51.9360 C   0  0  0  0  0  0  0  0  0  0  0  0
    1.2720    2.7390   50.3280 C   0  0  0  0  0  0  0  0  0  0  0  0
    1.8670    3.1040   48.0150 C   0  0  0  0  0  0  0  0  0  0  0  0
    1.8680    8.1200   54.3050 C   0  0  0  0  0  0  0  0  0  0  0  0
    1.8660    3.9240   50.6750 C   0  0  0  0  0  0  0  0  0  0  0  0
    2.5240    4.2610   48.3960 C   0  0  0  0  0  0  0  0  0  0  0  0
    1.3330    2.2970   49.0120 C   0  0  0  0  0  0  0  0  0  0  0  0
    2.5910    6.6710   52.4370 C   0  0  0  0  0  0  0  0  0  0  0  0
    2.8370    7.4000   53.6350 C   0  0  0  0  0  0  0  0  0  0  0  0
    2.5340    4.6670   49.7180 C   0  0  0  0  0  0  0  0  0  0  0  0
    1.1500   -0.0910   49.5460 C   0  0  0  0  0  0  0  0  0  0  0  0
    2.8330    1.3960   53.1020 C   0  0  0  0  0  0  0  0  0  0  0  0
    3.8110    0.7530   52.1450 C   0  0  0  0  0  0  0  0  0  0  0  0
    1.6080    0.4880   53.2230 C   0  0  0  0  0  0  0  0  0  0  0  0
    3.2830    0.4690   50.7480 C   0  0  0  0  0  0  0  0  0  0  0  0
    1.3070   -0.3740   51.9920 C   0  0  0  0  0  0  0  0  0  0  0  0
    1.8850    0.0370   50.7220 N   0  0  0  0  0  0  0  0  0  0  0  0
    0.9450    0.9910   48.7080 N   0  0  0  0  0  0  0  0  0  0  0  0
    3.5500    5.9640   51.8160 N   0  0  0  0  0  0  0  0  0  0  0  0
    0.6700   -1.1590   49.2110 O   0  0  0  0  0  0  0  0  0  0  0  0
    3.2540    7.2110   49.6970 O   0  0  0  0  0  0  0  0  0  0  0  0
    4.9030    5.5320   49.7020 O   0  0  0  0  0  0  0  0  0  0  0  0
    4.0680    7.4690   54.1230 F   0  0  0  0  0  0  0  0  0  0  0  0
    3.6370    5.9470   50.1890 S   0  0  2  0  0  0  0  0  0  0  0  0
  1  2  2  0
  1  3  1  0
  2  6  1  0
  3 10  2  0
  4  7  2  0
  4  9  1  0
  5  8  1  0
  5  9  2  0
  6 11  2  0
  7 12  1  0
  8 12  2  0
  9 20  1  0
 10 11  1  0
 10 21  1  0
 11 25  1  0
 12 26  1  0
 13 19  1  0
 13 20  1  0
 13 22  2  0
 14 15  1  0
 14 16  1  0
 15 17  1  0
 16 18  1  0
 17 19  1  0
 18 19  1  0
 21 26  2  0
 23 26  2  0
 26 24  1  1
M  CHG  1  24  -1
M  END
>  <washed_aromatic_smiles>  (119) 
c1ccc(c(c1)NS(=O)(=O)c2ccc(cc2)NC(=O)N3CCCCC3)F

>  <name>  (119) 
neg49142

$$$$
neg178020
     RDKit          3D

 29 31  0  0  0  0  0  0  0  0999 V2000
    3.6240   -0.6330   51.3540 C   0  0  0  0  0  0  0  0  0  0  0  0
    2.7060   -1.1110   52.2750 C   0  0  0  0  0  0  0  0  0  0  0  0
    5.5230   11.9790   54.9530 C   0  0  0  0  0  0  0  0  0  0  0  0
    4.1950   10.3680   56.1560 C   0  0  0  0  0  0  0  0  0  0  0  0
    5.8780   12.5750   56.1440 C   0  0  0  0  0  0  0  0  0  0  0  0
    4.5480   10.9810   57.3540 C   0  0  0  0  0  0  0  0  0  0  0  0
    2.3550    8.9850   52.8680 C   0  0  0  0  0  0  0  0  0  0  0  0
    4.2130    7.8040   53.8430 C   0  0  0  0  0  0  0  0  0  0  0  0
    1.8010    7.7810   52.4460 C   0  0  0  0  0  0  0  0  0  0  0  0
    3.6930    6.6120   53.3640 C   0  0  0  0  0  0  0  0  0  0  0  0
    3.4890    0.6200   50.8230 C   0  0  0  0  0  0  0  0  0  0  0  0
    1.5520   -0.3900   52.5170 C   0  0  0  0  0  0  0  0  0  0  0  0
    4.6920   10.8520   54.9360 C   0  0  0  0  0  0  0  0  0  0  0  0
    3.6100    9.0130   53.5000 C   0  0  0  0  0  0  0  0  0  0  0  0
    5.4110   12.0880   57.3660 C   0  0  0  0  0  0  0  0  0  0  0  0
    2.5420    6.6060   52.6060 C   0  0  0  0  0  0  0  0  0  0  0  0
    2.3980    1.4050   51.1300 C   0  0  0  0  0  0  0  0  0  0  0  0
    1.3220    0.7910   51.8190 C   0  0  0  0  0  0  0  0  0  0  0  0
    4.3810   10.2320   53.6530 C   0  0  0  0  0  0  0  0  0  0  0  0
    5.8670   12.7120   58.6060 C   0  0  0  0  0  0  0  0  0  0  0  0
    1.4850    5.0530   50.9710 C   0  0  0  0  0  0  0  0  0  0  0  0
    1.4700    3.6290   50.4920 C   0  0  0  0  0  0  0  0  0  0  0  0
    2.3090    5.3550   52.0050 N   0  0  0  0  0  0  0  0  0  0  0  0
    4.8770   10.7140   52.6490 O   0  0  0  0  0  0  0  0  0  0  0  0
    5.7440   12.0880   59.6840 O   0  0  0  0  0  0  0  0  0  0  0  0
    0.6760    5.8490   50.5670 O   0  0  0  0  0  0  0  0  0  0  0  0
    6.4400   13.8350   58.5810 O   0  0  0  0  0  0  0  0  0  0  0  0
    2.5540    2.7520   50.7450 O   0  0  0  0  0  0  0  0  0  0  0  0
   -0.3390    1.2160   51.7120 Cl  0  0  0  0  0  0  0  0  0  0  0  0
  1  2  2  0
  1 11  1  0
  2 12  1  0
  3  5  2  0
  3 13  1  0
  4  6  1  0
  4 13  2  0
  5 15  1  0
  6 15  2  0
  7  9  2  0
  7 14  1  0
  8 10  1  0
  8 14  2  0
  9 16  1  0
 10 16  2  0
 11 17  2  0
 12 18  2  0
 13 19  1  0
 14 19  1  0
 15 20  1  0
 16 23  1  0
 17 18  1  0
 17 28  1  0
 18 29  1  0
 19 24  2  0
 20 25  1  0
 20 27  2  0
 21 22  1  0
 21 23  1  0
 21 26  2  0
 22 28  1  0
M  CHG  1  25  -1
M  END
>  <washed_aromatic_smiles>  (120) 
c1ccc(c(c1)OCC(=O)Nc2ccc(cc2)C(=O)c3ccc(cc3)C(=O)O)Cl

>  <name>  (120) 
neg178020

$$$$
neg16926
     RDKit          3D

 26 28  0  0  0  0  0  0  0  0999 V2000
    0.0470    0.7690   47.6620 C   0  0  0  0  0  0  0  0  0  0  0  0
    0.2310   -0.3030   48.5380 C   0  0  0  0  0  0  0  0  0  0  0  0
    3.7020    6.7100   53.3700 C   0  0  0  0  0  0  0  0  0  0  0  0
    1.8840    8.0140   52.4970 C   0  0  0  0  0  0  0  0  0  0  0  0
    0.6690    1.9910   47.8990 C   0  0  0  0  0  0  0  0  0  0  0  0
    1.0970   -0.1910   49.6170 C   0  0  0  0  0  0  0  0  0  0  0  0
    4.3400    7.8590   53.7930 C   0  0  0  0  0  0  0  0  0  0  0  0
    2.5560    9.1770   52.8830 C   0  0  0  0  0  0  0  0  0  0  0  0
    2.5140    6.7880   52.6830 C   0  0  0  0  0  0  0  0  0  0  0  0
    1.4750    2.1350   49.0230 C   0  0  0  0  0  0  0  0  0  0  0  0
    1.7330    1.0190   49.8340 C   0  0  0  0  0  0  0  0  0  0  0  0
    3.8070    9.1110   53.5170 C   0  0  0  0  0  0  0  0  0  0  0  0
    1.4430    5.1640   51.0990 C   0  0  0  0  0  0  0  0  0  0  0  0
    5.1280    9.8660   57.8890 C   0  0  0  0  0  0  0  0  0  0  0  0
    4.9470   11.3710   57.8570 C   0  0  0  0  0  0  0  0  0  0  0  0
    4.8580    9.4130   56.4600 C   0  0  0  0  0  0  0  0  0  0  0  0
    5.0660   11.7620   56.3860 C   0  0  0  0  0  0  0  0  0  0  0  0
    1.7440    3.7330   50.7350 C   0  0  0  0  0  0  0  0  0  0  0  0
    4.6200   10.6010   55.6310 N   0  0  0  0  0  0  0  0  0  0  0  0
    2.1570    5.5360   52.1850 N   0  0  0  0  0  0  0  0  0  0  0  0
    0.6030    5.8740   50.6050 O   0  0  0  0  0  0  0  0  0  0  0  0
    6.1980   10.1760   53.7080 O   0  0  0  0  0  0  0  0  0  0  0  0
    4.3550   11.6960   53.3540 O   0  0  0  0  0  0  0  0  0  0  0  0
    1.9020    3.4090   49.3400 O   0  0  0  0  0  0  0  0  0  0  0  0
    2.6210    1.0650   50.8580 F   0  0  0  0  0  0  0  0  0  0  0  0
    4.8370   10.5100   53.9800 S   0  0  0  0  0  0  0  0  0  0  0  0
  1  2  2  0
  1  5  1  0
  2  6  1  0
  3  7  2  0
  3  9  1  0
  4  8  1  0
  4  9  2  0
  5 10  2  0
  6 11  2  0
  7 12  1  0
  8 12  2  0
  9 20  1  0
 10 11  1  0
 10 24  1  0
 11 25  1  0
 12 26  1  0
 13 18  1  0
 13 20  1  0
 13 21  2  0
 14 15  1  0
 14 16  1  0
 15 17  1  0
 16 19  1  0
 17 19  1  0
 18 24  1  0
 19 26  1  0
 22 26  2  0
 23 26  2  0
M  END
>  <washed_aromatic_smiles>  (121) 
c1ccc(c(c1)OCC(=O)Nc2ccc(cc2)S(=O)(=O)N3CCCC3)F

>  <name>  (121) 
neg16926

$$$$
neg17948
     RDKit          3D

 25 27  0  0  0  0  0  0  0  0999 V2000
    2.5750    0.9510   51.9490 C   0  0  0  0  0  0  0  0  0  0  0  0
    1.9850    0.0800   51.0470 C   0  0  0  0  0  0  0  0  0  0  0  0
    3.7100    6.3630   53.2680 C   0  0  0  0  0  0  0  0  0  0  0  0
    1.9730    7.5930   52.2030 C   0  0  0  0  0  0  0  0  0  0  0  0
    2.6180    2.3130   51.6760 C   0  0  0  0  0  0  0  0  0  0  0  0
    4.2500    7.5420   53.7250 C   0  0  0  0  0  0  0  0  0  0  0  0
    2.5090    8.7830   52.7130 C   0  0  0  0  0  0  0  0  0  0  0  0
    1.4620    0.5760   49.8610 C   0  0  0  0  0  0  0  0  0  0  0  0
    2.6640    6.3600   52.3480 C   0  0  0  0  0  0  0  0  0  0  0  0
    3.7210    8.7800   53.4230 C   0  0  0  0  0  0  0  0  0  0  0  0
    2.0740    2.8430   50.4970 C   0  0  0  0  0  0  0  0  0  0  0  0
    1.5300    1.9380   49.5670 C   0  0  0  0  0  0  0  0  0  0  0  0
    5.0970    9.3170   57.8200 C   0  0  0  0  0  0  0  0  0  0  0  0
    3.8060   10.1060   57.7860 C   0  0  0  0  0  0  0  0  0  0  0  0
    5.3180    8.9760   56.3590 C   0  0  0  0  0  0  0  0  0  0  0  0
    3.6650   10.6280   56.3600 C   0  0  0  0  0  0  0  0  0  0  0  0
    4.7820   10.1060   55.5910 N   0  0  0  0  0  0  0  0  0  0  0  0
    2.5650    5.2390   51.6440 N   0  0  0  0  0  0  0  0  0  0  0  0
    6.1240    9.8110   53.4750 O   0  0  0  0  0  0  0  0  0  0  0  0
    4.2730   11.3630   53.4270 O   0  0  0  0  0  0  0  0  0  0  0  0
    0.7720    5.0890   49.9400 O   0  0  0  0  0  0  0  0  0  0  0  0
    3.0990    4.9110   49.2350 O   0  0  0  0  0  0  0  0  0  0  0  0
    4.8000   10.1300   53.9100 S   0  0  0  0  0  0  0  0  0  0  0  0
    2.0970    4.6460   50.2290 S   0  0  2  0  0  0  0  0  0  0  0  0
    0.9110    2.4640   47.8600 Br  0  0  0  0  0  0  0  0  0  0  0  0
  1  2  2  0
  1  5  1  0
  2  8  1  0
  3  6  2  0
  3  9  1  0
  4  7  1  0
  4  9  2  0
  5 11  2  0
  6 10  1  0
  7 10  2  0
  8 12  2  0
  9 18  1  0
 10 23  1  0
 11 12  1  0
 11 24  1  0
 12 25  1  0
 13 14  1  0
 13 15  1  0
 14 16  1  0
 15 17  1  0
 16 17  1  0
 17 23  1  0
 18 24  2  0
 19 23  2  0
 20 23  2  0
 21 24  2  0
 24 22  1  6
M  CHG  1  22  -1
M  END
>  <washed_aromatic_smiles>  (122) 
c1ccc(c(c1)S(=O)(=O)Nc2ccc(cc2)S(=O)(=O)N3CCCC3)Br

>  <name>  (122) 
neg17948

$$$$
neg261432
     RDKit          3D

 28 31  0  0  0  0  0  0  0  0999 V2000
    2.8370    7.0740   52.6710 C   0  0  0  0  0  0  0  0  0  0  0  0
    4.9870    7.3470   58.0620 C   0  0  0  0  0  0  0  0  0  0  0  0
    1.5050    7.3520   52.4440 C   0  0  0  0  0  0  0  0  0  0  0  0
    5.0120    8.6100   58.6360 C   0  0  0  0  0  0  0  0  0  0  0  0
   -2.4130    7.3780   59.3060 C   0  0  0  0  0  0  0  0  0  0  0  0
    5.4860   13.5950   53.2660 C   0  0  0  0  0  0  0  0  0  0  0  0
    3.4240    7.4040   53.8830 C   0  0  0  0  0  0  0  0  0  0  0  0
    4.3080    7.1330   56.8640 C   0  0  0  0  0  0  0  0  0  0  0  0
    0.7550    7.9400   53.4390 C   0  0  0  0  0  0  0  0  0  0  0  0
    4.4410    9.6640   57.9460 C   0  0  0  0  0  0  0  0  0  0  0  0
   -1.3730    8.2620   59.0350 C   0  0  0  0  0  0  0  0  0  0  0  0
    5.4920   12.2150   53.1340 C   0  0  0  0  0  0  0  0  0  0  0  0
   -2.6040    6.6540   58.1850 C   0  0  0  0  0  0  0  0  0  0  0  0
    5.1440   13.8570   54.5500 C   0  0  0  0  0  0  0  0  0  0  0  0
    2.7100    7.9360   54.9700 C   0  0  0  0  0  0  0  0  0  0  0  0
    3.5610    8.1390   56.2140 C   0  0  0  0  0  0  0  0  0  0  0  0
    1.2860    8.1830   54.7100 C   0  0  0  0  0  0  0  0  0  0  0  0
    3.8540    9.4080   56.7080 C   0  0  0  0  0  0  0  0  0  0  0  0
   -0.9690    8.0680   57.7480 C   0  0  0  0  0  0  0  0  0  0  0  0
    5.1080   11.7400   54.3420 C   0  0  0  0  0  0  0  0  0  0  0  0
    0.1090    8.6660   56.9570 C   0  0  0  0  0  0  0  0  0  0  0  0
    4.8600   10.4390   54.8420 C   0  0  0  0  0  0  0  0  0  0  0  0
    0.1560    8.5030   55.5840 N   0  0  0  0  0  0  0  0  0  0  0  0
    3.8730   10.4240   55.8060 N   0  0  0  0  0  0  0  0  0  0  0  0
    1.1040    9.1420   57.4400 O   0  0  0  0  0  0  0  0  0  0  0  0
    5.5080    9.4470   54.5190 O   0  0  0  0  0  0  0  0  0  0  0  0
   -1.7170    7.0470   57.2490 O   0  0  0  0  0  0  0  0  0  0  0  0
    4.9130   12.7520   55.2050 O   0  0  0  0  0  0  0  0  0  0  0  0
  1  3  2  0
  1  7  1  0
  2  4  2  0
  2  8  1  0
  3  9  1  0
  4 10  1  0
  5 11  1  0
  5 13  2  0
  6 12  1  0
  6 14  2  0
  7 15  2  0
  8 16  2  0
  9 17  2  0
 10 18  2  0
 11 19  2  0
 12 20  2  0
 13 27  1  0
 14 28  1  0
 15 16  1  0
 15 17  1  0
 16 18  1  0
 17 23  1  0
 18 24  1  0
 19 21  1  0
 19 27  1  0
 20 22  1  0
 20 28  1  0
 21 23  1  0
 21 25  2  0
 22 24  1  0
 22 26  2  0
M  END
>  <washed_aromatic_smiles>  (123) 
c1ccc(c(c1)c2ccccc2NC(=O)c3ccco3)NC(=O)c4ccco4

>  <name>  (123) 
neg261432

$$$$
neg120644
     RDKit          3D

 30 31  0  0  0  0  0  0  0  0999 V2000
    6.1950   11.8530   52.9910 C   0  0  0  0  0  0  0  0  0  0  0  0
    0.9550    0.1240   46.4500 C   0  0  0  0  0  0  0  0  0  0  0  0
    4.8390   12.0400   52.9110 C   0  0  0  0  0  0  0  0  0  0  0  0
    6.7130   10.5810   53.1550 C   0  0  0  0  0  0  0  0  0  0  0  0
    0.7830    1.4780   46.2660 C   0  0  0  0  0  0  0  0  0  0  0  0
    1.0000   -0.3960   47.7350 C   0  0  0  0  0  0  0  0  0  0  0  0
    4.0330   10.9430   53.0870 C   0  0  0  0  0  0  0  0  0  0  0  0
    5.9030    9.5330   53.5290 C   0  0  0  0  0  0  0  0  0  0  0  0
    0.8890    2.3330   47.3510 C   0  0  0  0  0  0  0  0  0  0  0  0
    0.9960    0.4500   48.8240 C   0  0  0  0  0  0  0  0  0  0  0  0
    4.5270    9.7400   53.5720 C   0  0  0  0  0  0  0  0  0  0  0  0
    1.1430    1.8360   48.6450 C   0  0  0  0  0  0  0  0  0  0  0  0
    3.5790    8.8090   54.1110 C   0  0  0  0  0  0  0  0  0  0  0  0
    1.5990    2.7430   49.7070 C   0  0  0  0  0  0  0  0  0  0  0  0
    0.3130    8.5340   55.0870 C   0  0  0  0  0  0  0  0  0  0  0  0
    2.7930    0.6220   52.4080 C   0  0  0  0  0  0  0  0  0  0  0  0
    3.7720    7.3400   53.9190 C   0  0  0  0  0  0  0  0  0  0  0  0
    1.4450    4.2400   49.4240 C   0  0  0  0  0  0  0  0  0  0  0  0
    2.8750    6.8280   52.7980 C   0  0  0  0  0  0  0  0  0  0  0  0
    1.6420    5.1620   50.6110 C   0  0  0  0  0  0  0  0  0  0  0  0
    3.4490    5.5570   52.2240 C   0  0  0  0  0  0  0  0  0  0  0  0
    3.1230    5.4660   50.7510 C   0  0  0  0  0  0  0  0  0  0  0  0
    2.5220    9.2580   54.6420 N   0  0  0  0  0  0  0  0  0  0  0  0
    2.1690    2.3960   50.8180 N   0  0  0  0  0  0  0  0  0  0  0  0
   -0.2020    8.7350   53.8490 N   0  0  0  0  0  0  0  0  0  0  0  0
    2.8640    1.5280   53.4150 N   0  0  0  0  0  0  0  0  0  0  0  0
    1.6460    8.3470   55.0840 N   0  0  0  0  0  0  0  0  0  0  0  0
    2.5070    1.0960   51.1400 N   0  0  0  0  0  0  0  0  0  0  0  0
   -0.3100    8.5330   56.1440 O   0  0  0  0  0  0  0  0  0  0  0  0
    2.9480   -0.5810   52.6050 O   0  0  0  0  0  0  0  0  0  0  0  0
  1  3  2  0
  1  4  1  0
  2  5  2  0
  2  6  1  0
  3  7  1  0
  4  8  2  0
  5  9  1  0
  6 10  2  0
  7 11  2  0
  8 11  1  0
  9 12  2  0
 10 12  1  0
 11 13  1  0
 12 14  1  0
 13 17  1  0
 13 23  2  0
 14 18  1  0
 14 24  2  0
 15 25  1  0
 15 27  1  0
 15 29  2  0
 16 26  1  0
 16 28  1  0
 16 30  2  0
 17 19  1  0
 18 20  1  0
 19 21  1  0
 20 22  1  0
 21 22  1  0
 23 27  1  0
 24 28  1  0
M  END
>  <washed_aromatic_smiles>  (124) 
c1ccc(cc1)/C(=N/NC(=O)N)/CCCCCC/C(=N/NC(=O)N)/c2ccccc2

>  <name>  (124) 
neg120644

$$$$
neg242447
     RDKit          3D

 25 27  0  0  0  0  0  0  0  0999 V2000
    2.7590    5.4870   50.1680 C   0  0  0  0  0  0  0  0  0  0  0  0
   -0.2420    0.1710   47.5820 C   0  0  0  0  0  0  0  0  0  0  0  0
    3.0500    5.2200   51.4940 C   0  0  0  0  0  0  0  0  0  0  0  0
    2.1800    4.4990   49.3840 C   0  0  0  0  0  0  0  0  0  0  0  0
    1.0390    0.1790   48.0590 C   0  0  0  0  0  0  0  0  0  0  0  0
   -1.2840   -0.0990   48.4450 C   0  0  0  0  0  0  0  0  0  0  0  0
    2.8150    3.9530   52.0120 C   0  0  0  0  0  0  0  0  0  0  0  0
    1.9140    3.2430   49.9190 C   0  0  0  0  0  0  0  0  0  0  0  0
    1.2730    0.2280   49.4220 C   0  0  0  0  0  0  0  0  0  0  0  0
   -1.0900    0.1380   49.7920 C   0  0  0  0  0  0  0  0  0  0  0  0
    3.3610    1.4720   55.8660 C   0  0  0  0  0  0  0  0  0  0  0  0
    4.3990   -0.6750   55.8910 C   0  0  0  0  0  0  0  0  0  0  0  0
    4.1450    1.8440   56.9500 C   0  0  0  0  0  0  0  0  0  0  0  0
    5.0960   -0.3540   57.0470 C   0  0  0  0  0  0  0  0  0  0  0  0
    2.2570    2.9240   51.2480 C   0  0  0  0  0  0  0  0  0  0  0  0
    0.1840    0.3810   50.2600 C   0  0  0  0  0  0  0  0  0  0  0  0
    3.4900    0.2080   55.2970 C   0  0  0  0  0  0  0  0  0  0  0  0
    4.9550    0.9160   57.5910 C   0  0  0  0  0  0  0  0  0  0  0  0
    1.9800    1.6350   51.9470 C   0  0  0  0  0  0  0  0  0  0  0  0
    2.8070    1.1230   52.7910 N   0  0  0  0  0  0  0  0  0  0  0  0
    3.0550   -1.3540   53.1890 O   0  0  0  0  0  0  0  0  0  0  0  0
    1.1950   -0.2680   54.1970 O   0  0  0  0  0  0  0  0  0  0  0  0
    0.3610    0.9830   51.8560 S   0  0  0  0  0  0  0  0  0  0  0  0
    2.5480   -0.1790   53.8000 S   0  0  0  0  0  0  0  0  0  0  0  0
    5.7810    1.3580   59.0470 Cl  0  0  0  0  0  0  0  0  0  0  0  0
  1  3  2  0
  1  4  1  0
  2  5  2  0
  2  6  1  0
  3  7  1  0
  4  8  2  0
  5  9  1  0
  6 10  2  0
  7 15  2  0
  8 15  1  0
  9 16  2  0
 10 16  1  0
 11 13  2  0
 11 17  1  0
 12 14  1  0
 12 17  2  0
 13 18  1  0
 14 18  2  0
 15 19  1  0
 16 23  1  0
 17 24  1  0
 18 25  1  0
 19 20  2  0
 19 23  1  0
 20 24  1  0
 21 24  2  0
 22 24  2  0
M  END
>  <washed_aromatic_smiles>  (125) 
c1ccc(cc1)/C(=N/S(=O)(=O)c2ccc(cc2)Cl)/Sc3ccccc3

>  <name>  (125) 
neg242447

$$$$
neg261606
     RDKit          3D

 27 29  0  0  0  0  0  0  0  0999 V2000
    5.7520   13.1650   57.7130 C   0  0  0  0  0  0  0  0  0  0  0  0
   -3.4120    7.2960   59.3950 C   0  0  0  0  0  0  0  0  0  0  0  0
    1.3650    5.8580   51.2280 C   0  0  0  0  0  0  0  0  0  0  0  0
    5.6870   12.2570   58.7640 C   0  0  0  0  0  0  0  0  0  0  0  0
    5.2030   12.8340   56.4800 C   0  0  0  0  0  0  0  0  0  0  0  0
   -3.1140    6.7520   58.1540 C   0  0  0  0  0  0  0  0  0  0  0  0
   -2.4480    8.0330   60.0460 C   0  0  0  0  0  0  0  0  0  0  0  0
    2.4900    6.6330   50.9790 C   0  0  0  0  0  0  0  0  0  0  0  0
    0.6090    6.1000   52.3670 C   0  0  0  0  0  0  0  0  0  0  0  0
    5.0680   11.0250   58.5850 C   0  0  0  0  0  0  0  0  0  0  0  0
    4.5680   11.6100   56.3080 C   0  0  0  0  0  0  0  0  0  0  0  0
   -1.9130    7.0880   57.5390 C   0  0  0  0  0  0  0  0  0  0  0  0
   -1.2920    8.3750   59.3700 C   0  0  0  0  0  0  0  0  0  0  0  0
    2.8360    7.6510   51.8570 C   0  0  0  0  0  0  0  0  0  0  0  0
    1.0310    7.0440   53.2960 C   0  0  0  0  0  0  0  0  0  0  0  0
    4.4590   10.6980   57.3680 C   0  0  0  0  0  0  0  0  0  0  0  0
   -1.0580    8.0500   58.0410 C   0  0  0  0  0  0  0  0  0  0  0  0
    2.1800    7.8080   53.0710 C   0  0  0  0  0  0  0  0  0  0  0  0
    3.7350    9.4370   57.2410 C   0  0  0  0  0  0  0  0  0  0  0  0
   -0.0440    8.6220   57.1030 C   0  0  0  0  0  0  0  0  0  0  0  0
    2.7220    8.7280   54.0690 C   0  0  0  0  0  0  0  0  0  0  0  0
    2.3990    9.3550   56.5030 C   0  0  0  0  0  0  0  0  0  0  0  0
    1.2440    9.0220   57.4280 N   0  0  0  0  0  0  0  0  0  0  0  0
    2.4640    8.4310   55.3740 N   0  0  0  0  0  0  0  0  0  0  0  0
    4.1630    8.4370   57.7780 O   0  0  0  0  0  0  0  0  0  0  0  0
   -0.2680    8.6350   55.9080 O   0  0  0  0  0  0  0  0  0  0  0  0
    3.4350    9.6860   53.8030 O   0  0  0  0  0  0  0  0  0  0  0  0
  1  4  2  0
  1  5  1  0
  2  6  2  0
  2  7  1  0
  3  8  2  0
  3  9  1  0
  4 10  1  0
  5 11  2  0
  6 12  1  0
  7 13  2  0
  8 14  1  0
  9 15  2  0
 10 16  2  0
 11 16  1  0
 12 17  2  0
 13 17  1  0
 14 18  2  0
 15 18  1  0
 16 19  1  0
 17 20  1  0
 18 21  1  0
 19 22  1  0
 19 25  2  0
 20 23  1  0
 20 26  2  0
 21 24  1  0
 21 27  2  0
 22 23  1  0
 22 24  1  0
M  END
>  <washed_aromatic_smiles>  (126) 
c1ccc(cc1)C(=O)C(NC(=O)c2ccccc2)NC(=O)c3ccccc3

>  <name>  (126) 
neg261606

$$$$
neg91682
     RDKit          3D

 28 30  0  0  0  0  0  0  0  0999 V2000
    3.7910    9.7430   55.2090 C   0  0  0  0  0  0  0  0  0  0  0  0
   -1.3840   -0.1470   48.6030 C   0  0  0  0  0  0  0  0  0  0  0  0
    4.2450    9.7590   53.8940 C   0  0  0  0  0  0  0  0  0  0  0  0
    2.6230    9.0570   55.5280 C   0  0  0  0  0  0  0  0  0  0  0  0
   -0.2440    0.1680   47.8870 C   0  0  0  0  0  0  0  0  0  0  0  0
   -1.4200    0.1280   49.9690 C   0  0  0  0  0  0  0  0  0  0  0  0
    3.5630    9.0470   52.9140 C   0  0  0  0  0  0  0  0  0  0  0  0
    1.9420    8.3490   54.5440 C   0  0  0  0  0  0  0  0  0  0  0  0
    0.9110    0.4510   48.5670 C   0  0  0  0  0  0  0  0  0  0  0  0
   -0.2520    0.3650   50.6680 C   0  0  0  0  0  0  0  0  0  0  0  0
    2.4410    8.2740   53.2390 C   0  0  0  0  0  0  0  0  0  0  0  0
    0.9410    0.4080   49.9590 C   0  0  0  0  0  0  0  0  0  0  0  0
    2.7320    5.5110   50.9110 C   0  0  0  0  0  0  0  0  0  0  0  0
    2.7840    2.7310   50.4850 C   0  0  0  0  0  0  0  0  0  0  0  0
    2.8520    5.0470   49.6340 C   0  0  0  0  0  0  0  0  0  0  0  0
    2.8050    3.1800   51.7760 C   0  0  0  0  0  0  0  0  0  0  0  0
    2.9330    4.6100   52.0060 C   0  0  0  0  0  0  0  0  0  0  0  0
    2.7260    3.6390   49.3590 C   0  0  0  0  0  0  0  0  0  0  0  0
    1.8460    7.3230   52.2980 C   0  0  0  0  0  0  0  0  0  0  0  0
    2.2110    0.3960   50.6250 C   0  0  0  0  0  0  0  0  0  0  0  0
    2.6080    6.8880   51.2280 N   0  0  0  0  0  0  0  0  0  0  0  0
    3.0570    1.3730   50.2180 N   0  0  0  0  0  0  0  0  0  0  0  0
    3.5130    5.0550   52.9900 O   0  0  0  0  0  0  0  0  0  0  0  0
    2.6320    3.2260   48.2030 O   0  0  0  0  0  0  0  0  0  0  0  0
    0.7510    6.7880   52.4670 O   0  0  0  0  0  0  0  0  0  0  0  0
    2.5780   -0.4390   51.4440 O   0  0  0  0  0  0  0  0  0  0  0  0
    3.4000    6.0630   48.3790 Cl  0  0  0  0  0  0  0  0  0  0  0  0
    2.9170    2.0330   53.0870 Cl  0  0  0  0  0  0  0  0  0  0  0  0
  1  3  2  0
  1  4  1  0
  2  5  2  0
  2  6  1  0
  3  7  1  0
  4  8  2  0
  5  9  1  0
  6 10  2  0
  7 11  2  0
  8 11  1  0
  9 12  2  0
 10 12  1  0
 11 19  1  0
 12 20  1  0
 13 15  2  0
 13 17  1  0
 13 21  1  0
 14 16  2  0
 14 18  1  0
 14 22  1  0
 15 18  1  0
 15 27  1  0
 16 17  1  0
 16 28  1  0
 17 23  2  0
 18 24  2  0
 19 21  1  0
 19 25  2  0
 20 22  1  0
 20 26  2  0
M  END
>  <washed_aromatic_smiles>  (127) 
c1ccc(cc1)C(=O)NC2=C(C(=O)C(=C(C2=O)Cl)NC(=O)c3ccccc3)Cl

>  <name>  (127) 
neg91682

$$$$
neg160027
     RDKit          3D

 26 27  0  0  0  0  0  0  0  0999 V2000
    5.6630   11.0600   53.4430 C   0  0  0  0  0  0  0  0  0  0  0  0
    2.9670    0.1360   53.3480 C   0  0  0  0  0  0  0  0  0  0  0  0
    4.3370   11.2060   53.0750 C   0  0  0  0  0  0  0  0  0  0  0  0
    6.1220    9.8100   53.8260 C   0  0  0  0  0  0  0  0  0  0  0  0
    2.5470    1.3650   52.8590 C   0  0  0  0  0  0  0  0  0  0  0  0
    2.7230   -1.0170   52.6140 C   0  0  0  0  0  0  0  0  0  0  0  0
    3.4920   10.0990   53.0570 C   0  0  0  0  0  0  0  0  0  0  0  0
    5.2670    8.7250   53.8840 C   0  0  0  0  0  0  0  0  0  0  0  0
    1.8030    1.4260   51.6860 C   0  0  0  0  0  0  0  0  0  0  0  0
    2.0370   -0.9460   51.4110 C   0  0  0  0  0  0  0  0  0  0  0  0
    3.9470    8.8460   53.4530 C   0  0  0  0  0  0  0  0  0  0  0  0
    1.4940    0.2640   50.9840 C   0  0  0  0  0  0  0  0  0  0  0  0
    3.0910    7.6750   53.3620 C   0  0  0  0  0  0  0  0  0  0  0  0
    0.5730    0.3240   49.8660 C   0  0  0  0  0  0  0  0  0  0  0  0
    1.7210    6.2420   51.8310 C   0  0  0  0  0  0  0  0  0  0  0  0
    0.4350    0.8800   47.4610 C   0  0  0  0  0  0  0  0  0  0  0  0
    2.7310    5.2440   51.2430 C   0  0  0  0  0  0  0  0  0  0  0  0
    0.4570    2.4050   47.4990 C   0  0  0  0  0  0  0  0  0  0  0  0
    1.9280    4.7300   49.0340 C   0  0  0  0  0  0  0  0  0  0  0  0
    2.4220    3.3680   48.5420 C   0  0  0  0  0  0  0  0  0  0  0  0
    2.3340    7.5110   52.2230 N   0  0  0  0  0  0  0  0  0  0  0  0
    1.1060    0.3140   48.6120 N   0  0  0  0  0  0  0  0  0  0  0  0
    3.0600    6.8260   54.2420 O   0  0  0  0  0  0  0  0  0  0  0  0
   -0.6380    0.4260   50.0150 O   0  0  0  0  0  0  0  0  0  0  0  0
    2.9110    5.3800   49.8360 O   0  0  0  0  0  0  0  0  0  0  0  0
    1.7490    2.9780   47.3490 O   0  0  0  0  0  0  0  0  0  0  0  0
  1  3  2  0
  1  4  1  0
  2  5  2  0
  2  6  1  0
  3  7  1  0
  4  8  2  0
  5  9  1  0
  6 10  2  0
  7 11  2  0
  8 11  1  0
  9 12  2  0
 10 12  1  0
 11 13  1  0
 12 14  1  0
 13 21  1  0
 13 23  2  0
 14 22  1  0
 14 24  2  0
 15 17  1  0
 15 21  1  0
 16 18  1  0
 16 22  1  0
 17 25  1  0
 18 26  1  0
 19 20  1  0
 19 25  1  0
 20 26  1  0
M  END
>  <washed_aromatic_smiles>  (128) 
c1ccc(cc1)C(=O)NCCOCCOCCNC(=O)c2ccccc2

>  <name>  (128) 
neg160027

$$$$
neg261938
     RDKit          3D

 28 30  0  0  0  0  0  0  0  0999 V2000
    2.1780   -0.3670   54.5440 C   0  0  0  0  0  0  0  0  0  0  0  0
    5.3430    9.4270   58.3840 C   0  0  0  0  0  0  0  0  0  0  0  0
    1.1930   -0.6400   53.6070 C   0  0  0  0  0  0  0  0  0  0  0  0
    3.1260    0.6080   54.2910 C   0  0  0  0  0  0  0  0  0  0  0  0
    5.8680    8.5950   57.4010 C   0  0  0  0  0  0  0  0  0  0  0  0
    4.2480   10.2350   58.0970 C   0  0  0  0  0  0  0  0  0  0  0  0
    1.1760    0.0170   52.3890 C   0  0  0  0  0  0  0  0  0  0  0  0
    3.1490    1.2260   53.0510 C   0  0  0  0  0  0  0  0  0  0  0  0
    5.2990    8.5780   56.1330 C   0  0  0  0  0  0  0  0  0  0  0  0
    3.6560   10.1930   56.8390 C   0  0  0  0  0  0  0  0  0  0  0  0
    3.0080    4.9950   50.7980 C   0  0  0  0  0  0  0  0  0  0  0  0
    3.3690    5.6000   51.9840 C   0  0  0  0  0  0  0  0  0  0  0  0
    2.2000    0.9050   52.0860 C   0  0  0  0  0  0  0  0  0  0  0  0
    4.1820    9.3650   55.8400 C   0  0  0  0  0  0  0  0  0  0  0  0
    1.7160    5.1840   50.3210 C   0  0  0  0  0  0  0  0  0  0  0  0
    1.3060    6.5510   52.1110 C   0  0  0  0  0  0  0  0  0  0  0  0
    2.3940    1.3840   50.7460 C   0  0  0  0  0  0  0  0  0  0  0  0
    3.6180    9.3300   54.4980 C   0  0  0  0  0  0  0  0  0  0  0  0
    1.7190    2.7750   48.8310 C   0  0  0  0  0  0  0  0  0  0  0  0
    1.6210    9.0120   53.0470 C   0  0  0  0  0  0  0  0  0  0  0  0
    2.5230    6.3650   52.6320 N   0  0  0  0  0  0  0  0  0  0  0  0
    0.8540    5.9330   51.0100 N   0  0  0  0  0  0  0  0  0  0  0  0
    1.4610    2.1590   50.1260 N   0  0  0  0  0  0  0  0  0  0  0  0
    2.2950    8.9910   54.3470 N   0  0  0  0  0  0  0  0  0  0  0  0
    3.4110    1.0930   50.1570 O   0  0  0  0  0  0  0  0  0  0  0  0
    4.2900    9.5920   53.5050 O   0  0  0  0  0  0  0  0  0  0  0  0
    1.2480    4.5230   48.7840 S   0  0  0  0  0  0  0  0  0  0  0  0
    0.3280    7.7470   52.8780 S   0  0  0  0  0  0  0  0  0  0  0  0
  1  3  2  0
  1  4  1  0
  2  5  2  0
  2  6  1  0
  3  7  1  0
  4  8  2  0
  5  9  1  0
  6 10  2  0
  7 13  2  0
  8 13  1  0
  9 14  2  0
 10 14  1  0
 11 12  2  0
 11 15  1  0
 12 21  1  0
 13 17  1  0
 14 18  1  0
 15 22  2  0
 15 27  1  0
 16 21  2  0
 16 22  1  0
 16 28  1  0
 17 23  1  0
 17 25  2  0
 18 24  1  0
 18 26  2  0
 19 23  1  0
 19 27  1  0
 20 24  1  0
 20 28  1  0
M  END
>  <washed_aromatic_smiles>  (129) 
c1ccc(cc1)C(=O)NCSc2ccnc(n2)SCNC(=O)c3ccccc3

>  <name>  (129) 
neg261938

$$$$
neg117016
     RDKit          3D

 25 27  0  0  0  0  0  0  0  0999 V2000
    2.0170    8.8760   54.7080 C   0  0  0  0  0  0  0  0  0  0  0  0
    2.9990    9.0500   53.7430 C   0  0  0  0  0  0  0  0  0  0  0  0
    0.9410    8.0340   54.4540 C   0  0  0  0  0  0  0  0  0  0  0  0
    2.9310    8.3380   52.5550 C   0  0  0  0  0  0  0  0  0  0  0  0
    0.9150    7.2680   53.2970 C   0  0  0  0  0  0  0  0  0  0  0  0
    1.6420    3.8300   48.2020 C   0  0  0  0  0  0  0  0  0  0  0  0
    1.1000    2.5880   48.5820 C   0  0  0  0  0  0  0  0  0  0  0  0
    1.9380    7.3710   52.3540 C   0  0  0  0  0  0  0  0  0  0  0  0
    2.5250    4.3270   49.1180 C   0  0  0  0  0  0  0  0  0  0  0  0
    1.5610    2.1700   49.7980 C   0  0  0  0  0  0  0  0  0  0  0  0
    1.9380    6.4730   51.1990 C   0  0  0  0  0  0  0  0  0  0  0  0
    3.4840   -0.7120   55.1760 C   0  0  0  0  0  0  0  0  0  0  0  0
    3.0410   -1.0530   53.7660 C   0  0  0  0  0  0  0  0  0  0  0  0
    3.4180    0.7680   55.4750 C   0  0  0  0  0  0  0  0  0  0  0  0
    1.5820   -0.6900   53.6580 C   0  0  0  0  0  0  0  0  0  0  0  0
    2.3620    1.5110   54.6540 C   0  0  0  0  0  0  0  0  0  0  0  0
    1.5400    0.7960   53.5440 C   0  0  0  0  0  0  0  0  0  0  0  0
    3.2800    5.6270   49.1840 C   0  0  0  0  0  0  0  0  0  0  0  0
    3.0950    6.3630   50.4490 N   0  0  0  0  0  0  0  0  0  0  0  0
    1.9870    1.1760   52.2250 N   0  0  0  0  0  0  0  0  0  0  0  0
    0.9430    5.8170   50.8950 O   0  0  0  0  0  0  0  0  0  0  0  0
   -0.2620    0.8360   51.0960 O   0  0  0  0  0  0  0  0  0  0  0  0
    1.6620   -0.3900   50.2630 O   0  0  0  0  0  0  0  0  0  0  0  0
    2.6980    3.2770   50.4550 S   0  0  0  0  0  0  0  0  0  0  0  0
    1.1400    0.8020   50.8420 S   0  0  0  0  0  0  0  0  0  0  0  0
  1  2  2  0
  1  3  1  0
  2  4  1  0
  3  5  2  0
  4  8  2  0
  5  8  1  0
  6  7  1  0
  6  9  2  0
  7 10  2  0
  8 11  1  0
  9 18  1  0
  9 24  1  0
 10 24  1  0
 10 25  1  0
 11 19  1  0
 11 21  2  0
 12 13  1  0
 12 14  1  0
 13 15  1  0
 14 16  1  0
 15 17  1  0
 16 17  1  0
 17 20  1  0
 18 19  1  0
 20 25  1  0
 22 25  2  0
 23 25  2  0
M  END
>  <washed_aromatic_smiles>  (130) 
c1ccc(cc1)C(=O)NCc2ccc(s2)S(=O)(=O)NC3CCCCC3

>  <name>  (130) 
neg117016

$$$$
neg8333
     RDKit          3D

 26 29  0  0  0  0  0  0  0  0999 V2000
    4.5630    8.9340   57.6750 C   0  0  0  0  0  0  0  0  0  0  0  0
    3.2560    9.1070   57.2310 C   0  0  0  0  0  0  0  0  0  0  0  0
    5.5870    8.7630   56.7520 C   0  0  0  0  0  0  0  0  0  0  0  0
    2.9680    9.1070   55.8780 C   0  0  0  0  0  0  0  0  0  0  0  0
    5.3070    8.7840   55.3900 C   0  0  0  0  0  0  0  0  0  0  0  0
    3.9910    8.9510   54.9430 C   0  0  0  0  0  0  0  0  0  0  0  0
    3.6820    8.9250   53.5280 C   0  0  0  0  0  0  0  0  0  0  0  0
    2.7660    3.2800   49.4140 C   0  0  0  0  0  0  0  0  0  0  0  0
    3.1150    6.1810   51.6820 C   0  0  0  0  0  0  0  0  0  0  0  0
    1.4400   -0.8510   49.8320 C   0  0  0  0  0  0  0  0  0  0  0  0
    1.8090   -0.0890   52.1750 C   0  0  0  0  0  0  0  0  0  0  0  0
   -0.3000    0.5590   50.8930 C   0  0  0  0  0  0  0  0  0  0  0  0
    3.2250    0.9330   50.4900 C   0  0  0  0  0  0  0  0  0  0  0  0
    1.1170    1.4020   48.9700 C   0  0  0  0  0  0  0  0  0  0  0  0
    1.4880    2.2100   51.2690 C   0  0  0  0  0  0  0  0  0  0  0  0
    2.5240   -0.3910   50.8520 C   0  0  2  0  0  0  0  0  0  0  0  0
    0.3720    0.2010   49.5630 C   0  0  1  0  0  0  0  0  0  0  0  0
    0.7630    0.9970   51.8920 C   0  0  2  0  0  0  0  0  0  0  0  0
    2.1890    1.9520   49.9450 C   0  0  2  0  0  0  0  0  0  0  0  0
    3.2700    5.6120   50.2900 C   0  0  0  0  0  0  0  0  0  0  0  0
    2.6970    8.0580   53.1510 N   0  0  0  0  0  0  0  0  0  0  0  0
    2.7030    7.4660   51.8280 N   0  0  0  0  0  0  0  0  0  0  0  0
    4.2840    9.6010   52.6950 O   0  0  0  0  0  0  0  0  0  0  0  0
    3.1010    3.4570   48.2430 O   0  0  0  0  0  0  0  0  0  0  0  0
    3.4050    5.5250   52.6750 O   0  0  0  0  0  0  0  0  0  0  0  0
    2.8460    4.2590   50.3070 O   0  0  0  0  0  0  0  0  0  0  0  0
  1  2  2  0
  1  3  1  0
  2  4  1  0
  3  5  2  0
  4  6  2  0
  5  6  1  0
  6  7  1  0
  7 21  1  0
  7 23  2  0
 19  8  1  6
  8 24  2  0
  8 26  1  0
  9 20  1  0
  9 22  1  0
  9 25  2  0
 16 10  1  6
 17 10  1  1
 11 16  1  0
 18 11  1  6
 12 17  1  0
 12 18  1  0
 13 16  1  0
 13 19  1  0
 14 17  1  0
 14 19  1  0
 15 18  1  0
 15 19  1  0
 20 26  1  0
 21 22  1  0
M  END
>  <washed_aromatic_smiles>  (131) 
c1ccc(cc1)C(=O)NNC(=O)COC(=O)C23CC4CC(C2)CC(C4)C3

>  <name>  (131) 
neg8333

$$$$
neg281867
     RDKit          3D

 27 30  0  0  0  0  0  0  0  0999 V2000
    0.3930    8.4550   52.6950 C   0  0  0  0  0  0  0  0  0  0  0  0
   -0.0900    7.2310   52.2380 C   0  0  0  0  0  0  0  0  0  0  0  0
    1.7520    8.6050   52.9370 C   0  0  0  0  0  0  0  0  0  0  0  0
    0.7520    6.1680   52.0220 C   0  0  0  0  0  0  0  0  0  0  0  0
    2.6040    7.5290   52.7460 C   0  0  0  0  0  0  0  0  0  0  0  0
    2.7760   -0.1910   52.3240 C   0  0  0  0  0  0  0  0  0  0  0  0
    2.6220    0.2740   51.0290 C   0  0  0  0  0  0  0  0  0  0  0  0
    2.9020    2.0690   53.1180 C   0  0  0  0  0  0  0  0  0  0  0  0
    2.1030    6.2940   52.3080 C   0  0  0  0  0  0  0  0  0  0  0  0
    2.9230    0.6950   53.3950 C   0  0  0  0  0  0  0  0  0  0  0  0
    2.6280    1.6470   50.7440 C   0  0  0  0  0  0  0  0  0  0  0  0
    2.7630    2.5640   51.8160 C   0  0  0  0  0  0  0  0  0  0  0  0
    3.0090    0.1290   54.7440 C   0  0  0  0  0  0  0  0  0  0  0  0
    2.9420    5.1200   52.3110 C   0  0  0  0  0  0  0  0  0  0  0  0
    0.7790    2.4470   47.6830 C   0  0  0  0  0  0  0  0  0  0  0  0
    1.3860    3.7550   48.1600 C   0  0  0  0  0  0  0  0  0  0  0  0
    4.5350    1.5330   57.8470 C   0  0  0  0  0  0  0  0  0  0  0  0
    5.5060    0.4030   57.5030 C   0  0  0  0  0  0  0  0  0  0  0  0
    1.2260    1.4520   48.7460 C   0  0  0  0  0  0  0  0  0  0  0  0
    2.7130    3.3040   48.7360 C   0  0  0  0  0  0  0  0  0  0  0  0
    3.6020    1.6390   56.6320 C   0  0  0  0  0  0  0  0  0  0  0  0
    4.7140   -0.3900   56.4750 C   0  0  0  0  0  0  0  0  0  0  0  0
    2.4490    1.9970   49.3790 N   0  0  0  0  0  0  0  0  0  0  0  0
    3.9140    0.5700   55.6980 N   0  0  0  0  0  0  0  0  0  0  0  0
    2.5570    3.9860   51.5850 N   0  0  0  0  0  0  0  0  0  0  0  0
    2.3270   -0.8370   55.0480 O   0  0  0  0  0  0  0  0  0  0  0  0
    3.9130    5.1190   53.0310 O   0  0  0  0  0  0  0  0  0  0  0  0
  1  2  2  0
  1  3  1  0
  2  4  1  0
  3  5  2  0
  4  9  2  0
  5  9  1  0
  6  7  2  0
  6 10  1  0
  7 11  1  0
  8 10  2  0
  8 12  1  0
  9 14  1  0
 10 13  1  0
 11 12  2  0
 11 23  1  0
 12 25  1  0
 13 24  1  0
 13 26  2  0
 14 25  1  0
 14 27  2  0
 15 16  1  0
 15 19  1  0
 16 20  1  0
 17 18  1  0
 17 21  1  0
 18 22  1  0
 19 23  1  0
 20 23  1  0
 21 24  1  0
 22 24  1  0
M  END
>  <washed_aromatic_smiles>  (132) 
c1ccc(cc1)C(=O)Nc2cc(ccc2N3CCCC3)C(=O)N4CCCC4

>  <name>  (132) 
neg281867

$$$$
neg46373
     RDKit          3D

 28 30  0  0  0  0  0  0  0  0999 V2000
   -0.3940   -0.3490   49.0190 C   0  0  0  0  0  0  0  0  0  0  0  0
   -0.9670    0.3270   50.0930 C   0  0  0  0  0  0  0  0  0  0  0  0
    0.9400   -0.7260   49.0830 C   0  0  0  0  0  0  0  0  0  0  0  0
   -0.1710    0.8490   51.0890 C   0  0  0  0  0  0  0  0  0  0  0  0
    1.7230   -0.2820   50.1410 C   0  0  0  0  0  0  0  0  0  0  0  0
    6.1000   11.4660   54.4220 C   0  0  0  0  0  0  0  0  0  0  0  0
    4.2420   12.7660   53.7970 C   0  0  0  0  0  0  0  0  0  0  0  0
    3.0000    4.4580   52.3230 C   0  0  0  0  0  0  0  0  0  0  0  0
    1.2620    5.1480   50.8210 C   0  0  0  0  0  0  0  0  0  0  0  0
    3.2930    5.7700   52.6300 C   0  0  0  0  0  0  0  0  0  0  0  0
    1.3940    6.4320   51.3130 C   0  0  0  0  0  0  0  0  0  0  0  0
    6.2960   12.3520   55.4580 C   0  0  0  0  0  0  0  0  0  0  0  0
    4.2590   13.4670   54.9940 C   0  0  0  0  0  0  0  0  0  0  0  0
    1.2020    0.6620   51.0110 C   0  0  0  0  0  0  0  0  0  0  0  0
    4.9620   11.5880   53.6820 C   0  0  0  0  0  0  0  0  0  0  0  0
    2.0880    4.1550   51.3300 C   0  0  0  0  0  0  0  0  0  0  0  0
    2.5110    6.7620   52.0670 C   0  0  0  0  0  0  0  0  0  0  0  0
    5.3110   13.2290   55.8380 C   0  0  0  0  0  0  0  0  0  0  0  0
    2.0640    1.6540   51.5780 C   0  0  0  0  0  0  0  0  0  0  0  0
    4.4840   10.4080   53.0260 C   0  0  0  0  0  0  0  0  0  0  0  0
    2.5860    8.7460   53.3860 C   0  0  0  0  0  0  0  0  0  0  0  0
    1.9320    2.8380   50.8690 N   0  0  0  0  0  0  0  0  0  0  0  0
    2.8940    8.0890   52.2280 N   0  0  0  0  0  0  0  0  0  0  0  0
    3.4530    9.7870   53.7160 N   0  0  0  0  0  0  0  0  0  0  0  0
    2.7980    1.4860   52.5450 O   0  0  0  0  0  0  0  0  0  0  0  0
    5.0290    9.9370   52.0550 O   0  0  0  0  0  0  0  0  0  0  0  0
    5.4220   13.8700   57.0250 F   0  0  0  0  0  0  0  0  0  0  0  0
    1.2790    8.3420   54.3620 S   0  0  0  0  0  0  0  0  0  0  0  0
  1  2  2  0
  1  3  1  0
  2  4  1  0
  3  5  2  0
  4 14  2  0
  5 14  1  0
  6 12  2  0
  6 15  1  0
  7 13  1  0
  7 15  2  0
  8 10  2  0
  8 16  1  0
  9 11  1  0
  9 16  2  0
 10 17  1  0
 11 17  2  0
 12 18  1  0
 13 18  2  0
 14 19  1  0
 15 20  1  0
 16 22  1  0
 17 23  1  0
 18 27  1  0
 19 22  1  0
 19 25  2  0
 20 24  1  0
 20 26  2  0
 21 23  1  0
 21 24  1  0
 21 28  2  0
M  END
>  <washed_aromatic_smiles>  (133) 
c1ccc(cc1)C(=O)Nc2ccc(cc2)NC(=S)NC(=O)c3ccc(cc3)F

>  <name>  (133) 
neg46373

$$$$
neg57315
     RDKit          3D

 26 28  0  0  0  0  0  0  0  0999 V2000
    0.8960    0.1690   46.4920 C   0  0  0  0  0  0  0  0  0  0  0  0
    1.0600   -0.4560   47.7240 C   0  0  0  0  0  0  0  0  0  0  0  0
    0.6990    1.5330   46.4200 C   0  0  0  0  0  0  0  0  0  0  0  0
    5.3530   13.0440   56.4370 C   0  0  0  0  0  0  0  0  0  0  0  0
    1.1430    0.3010   48.8760 C   0  0  0  0  0  0  0  0  0  0  0  0
    0.8640    2.3070   47.5580 C   0  0  0  0  0  0  0  0  0  0  0  0
    3.1630    5.7430   49.5930 C   0  0  0  0  0  0  0  0  0  0  0  0
    2.5350    4.7360   51.6950 C   0  0  0  0  0  0  0  0  0  0  0  0
    3.2110    6.9750   50.2210 C   0  0  0  0  0  0  0  0  0  0  0  0
    2.4910    5.9840   52.2880 C   0  0  0  0  0  0  0  0  0  0  0  0
    5.4780   11.6650   56.3260 C   0  0  0  0  0  0  0  0  0  0  0  0
    5.0000   13.5020   55.2140 C   0  0  0  0  0  0  0  0  0  0  0  0
    1.1740    1.6890   48.7770 C   0  0  0  0  0  0  0  0  0  0  0  0
    2.7690    4.6310   50.3260 C   0  0  0  0  0  0  0  0  0  0  0  0
    2.8590    7.1060   51.5670 C   0  0  0  0  0  0  0  0  0  0  0  0
    5.2010   11.3390   55.0320 C   0  0  0  0  0  0  0  0  0  0  0  0
    1.6420    2.4510   49.9080 C   0  0  0  0  0  0  0  0  0  0  0  0
    5.1710   10.0370   54.4110 C   0  0  0  0  0  0  0  0  0  0  0  0
    3.4710    8.6470   53.4350 C   0  0  0  0  0  0  0  0  0  0  0  0
    2.5480    3.4440   49.6030 N   0  0  0  0  0  0  0  0  0  0  0  0
    2.9350    8.3900   52.1720 N   0  0  0  0  0  0  0  0  0  0  0  0
    4.2390    9.8120   53.4210 N   0  0  0  0  0  0  0  0  0  0  0  0
    1.3130    2.1930   51.0550 O   0  0  0  0  0  0  0  0  0  0  0  0
    5.8900    9.1060   54.7670 O   0  0  0  0  0  0  0  0  0  0  0  0
    4.8990   12.4780   54.3440 O   0  0  0  0  0  0  0  0  0  0  0  0
    3.2260    7.7590   54.8460 S   0  0  0  0  0  0  0  0  0  0  0  0
  1  2  2  0
  1  3  1  0
  2  5  1  0
  3  6  2  0
  4 11  1  0
  4 12  2  0
  5 13  2  0
  6 13  1  0
  7  9  2  0
  7 14  1  0
  8 10  1  0
  8 14  2  0
  9 15  1  0
 10 15  2  0
 11 16  2  0
 12 25  1  0
 13 17  1  0
 14 20  1  0
 15 21  1  0
 16 18  1  0
 16 25  1  0
 17 20  1  0
 17 23  2  0
 18 22  1  0
 18 24  2  0
 19 21  1  0
 19 22  1  0
 19 26  2  0
M  END
>  <washed_aromatic_smiles>  (134) 
c1ccc(cc1)C(=O)Nc2ccc(cc2)NC(=S)NC(=O)c3ccco3

>  <name>  (134) 
neg57315

$$$$
neg174507
     RDKit          3D

 30 33  0  0  0  0  0  0  0  0999 V2000
    5.5810   12.3070   58.4440 C   0  0  0  0  0  0  0  0  0  0  0  0
    5.3730   10.9490   58.6610 C   0  0  0  0  0  0  0  0  0  0  0  0
    5.4440   12.8330   57.1650 C   0  0  0  0  0  0  0  0  0  0  0  0
    0.4970    8.0540   53.6020 C   0  0  0  0  0  0  0  0  0  0  0  0
    5.0170   10.1170   57.6100 C   0  0  0  0  0  0  0  0  0  0  0  0
    5.1000   12.0030   56.1050 C   0  0  0  0  0  0  0  0  0  0  0  0
    0.9990    7.4670   52.4470 C   0  0  0  0  0  0  0  0  0  0  0  0
    1.6080    0.6940   49.7640 C   0  0  0  0  0  0  0  0  0  0  0  0
    0.9060    1.9690   47.8100 C   0  0  0  0  0  0  0  0  0  0  0  0
    1.3420    8.4250   54.6310 C   0  0  0  0  0  0  0  0  0  0  0  0
    0.6250   -0.2350   49.5090 C   0  0  0  0  0  0  0  0  0  0  0  0
   -0.0690    1.0250   47.5530 C   0  0  0  0  0  0  0  0  0  0  0  0
    3.2310    7.6430   53.3440 C   0  0  0  0  0  0  0  0  0  0  0  0
    4.8740   10.6360   56.3190 C   0  0  0  0  0  0  0  0  0  0  0  0
    2.3790    7.2880   52.2910 C   0  0  0  0  0  0  0  0  0  0  0  0
    1.6830    1.8500   48.9760 C   0  0  0  0  0  0  0  0  0  0  0  0
    2.7110    8.2580   54.4770 C   0  0  0  0  0  0  0  0  0  0  0  0
   -0.2510   -0.0020   48.4640 C   0  0  0  0  0  0  0  0  0  0  0  0
    2.9150    6.8540   51.0030 C   0  0  0  0  0  0  0  0  0  0  0  0
    4.4820    9.7810   55.2090 C   0  0  0  0  0  0  0  0  0  0  0  0
    2.4630    3.1180   50.8880 C   0  0  0  0  0  0  0  0  0  0  0  0
    2.5830    4.0980   48.5860 C   0  0  0  0  0  0  0  0  0  0  0  0
    2.1580    4.5520   51.3230 C   0  0  0  0  0  0  0  0  0  0  0  0
    3.3850    5.2140   49.2320 C   0  0  0  0  0  0  0  0  0  0  0  0
    2.5070    2.8920   49.4180 N   0  0  0  0  0  0  0  0  0  0  0  0
    2.8860    5.5560   50.5790 N   0  0  0  0  0  0  0  0  0  0  0  0
    3.5460    8.7970   55.4760 N   0  0  0  0  0  0  0  0  0  0  0  0
    3.4110    7.6510   50.2310 O   0  0  0  0  0  0  0  0  0  0  0  0
    4.9010    9.9410   54.0680 O   0  0  0  0  0  0  0  0  0  0  0  0
   -1.3470   -0.7280   48.3800 F   0  0  0  0  0  0  0  0  0  0  0  0
  1  2  2  0
  1  3  1  0
  2  5  1  0
  3  6  2  0
  4  7  2  0
  4 10  1  0
  5 14  2  0
  6 14  1  0
  7 15  1  0
  8 11  2  0
  8 16  1  0
  9 12  1  0
  9 16  2  0
 10 17  2  0
 11 18  1  0
 12 18  2  0
 13 15  2  0
 13 17  1  0
 14 20  1  0
 15 19  1  0
 16 25  1  0
 17 27  1  0
 18 30  1  0
 19 26  1  0
 19 28  2  0
 20 27  1  0
 20 29  2  0
 21 23  1  0
 21 25  1  0
 22 24  1  0
 22 25  1  0
 23 26  1  0
 24 26  1  0
M  END
>  <washed_aromatic_smiles>  (135) 
c1ccc(cc1)C(=O)Nc2cccc(c2)C(=O)N3CCN(CC3)c4ccc(cc4)F

>  <name>  (135) 
neg174507

$$$$
neg118868
     RDKit          3D

 27 30  0  0  0  0  0  0  0  0999 V2000
    5.4680   13.3430   53.6850 C   0  0  0  0  0  0  0  0  0  0  0  0
   -1.1480    0.2860   50.2830 C   0  0  0  0  0  0  0  0  0  0  0  0
    4.1930   12.8820   53.6250 C   0  0  0  0  0  0  0  0  0  0  0  0
    6.4510   12.4910   53.2320 C   0  0  0  0  0  0  0  0  0  0  0  0
   -0.6440    0.0270   49.0100 C   0  0  0  0  0  0  0  0  0  0  0  0
   -0.3440    0.8340   51.2750 C   0  0  0  0  0  0  0  0  0  0  0  0
    3.3170    6.2470   53.8500 C   0  0  0  0  0  0  0  0  0  0  0  0
    3.3510    5.3680   52.7630 C   0  0  0  0  0  0  0  0  0  0  0  0
    3.9820   11.6560   53.0590 C   0  0  0  0  0  0  0  0  0  0  0  0
    6.2760   11.1840   52.9100 C   0  0  0  0  0  0  0  0  0  0  0  0
    0.6330    0.4300   48.6850 C   0  0  0  0  0  0  0  0  0  0  0  0
    0.9460    1.2120   50.9720 C   0  0  0  0  0  0  0  0  0  0  0  0
    2.8450    7.5060   53.7040 C   0  0  0  0  0  0  0  0  0  0  0  0
    2.8800    7.1490   51.2950 C   0  0  0  0  0  0  0  0  0  0  0  0
    3.3270    5.2550   49.0630 C   0  0  0  0  0  0  0  0  0  0  0  0
    3.0440    5.8000   51.4740 C   0  0  0  0  0  0  0  0  0  0  0  0
    4.9940   10.7530   52.9260 C   0  0  0  0  0  0  0  0  0  0  0  0
    1.3870    1.0770   49.6580 C   0  0  0  0  0  0  0  0  0  0  0  0
    2.8860    7.9510   52.4150 C   0  0  0  0  0  0  0  0  0  0  0  0
    2.9960    4.9140   50.3440 C   0  0  0  0  0  0  0  0  0  0  0  0
    2.7390    3.0030   49.4030 C   0  0  0  0  0  0  0  0  0  0  0  0
    4.6460    9.4030   53.0060 C   0  0  0  0  0  0  0  0  0  0  0  0
    2.6330    3.6220   50.5280 N   0  0  0  0  0  0  0  0  0  0  0  0
    2.5700    1.6480   49.2550 N   0  0  0  0  0  0  0  0  0  0  0  0
    3.4840    9.1360   52.3160 N   0  0  0  0  0  0  0  0  0  0  0  0
    5.2750    8.6250   53.7300 O   0  0  0  0  0  0  0  0  0  0  0  0
    3.2310    3.9050   48.0290 S   0  0  0  0  0  0  0  0  0  0  0  0
  1  3  2  0
  1  4  1  0
  2  5  2  0
  2  6  1  0
  3  9  1  0
  4 10  2  0
  5 11  1  0
  6 12  2  0
  7  8  2  0
  7 13  1  0
  8 16  1  0
  9 17  2  0
 10 17  1  0
 11 18  2  0
 12 18  1  0
 13 19  2  0
 14 16  2  0
 14 19  1  0
 15 20  2  0
 15 27  1  0
 16 20  1  0
 17 22  1  0
 18 24  1  0
 19 25  1  0
 20 23  1  0
 21 23  2  0
 21 24  1  0
 21 27  1  0
 22 25  1  0
 22 26  2  0
M  END
>  <washed_aromatic_smiles>  (136) 
c1ccc(cc1)C(=O)Nc2cccc(c2)c3csc(n3)Nc4ccccc4

>  <name>  (136) 
neg118868

$$$$
neg234261
     RDKit          3D

 25 27  0  0  0  0  0  0  0  0999 V2000
    1.0470    9.0130   57.0360 C   0  0  0  0  0  0  0  0  0  0  0  0
    0.1500    8.6170   56.0540 C   0  0  0  0  0  0  0  0  0  0  0  0
    2.3780    9.2640   56.7140 C   0  0  0  0  0  0  0  0  0  0  0  0
    0.6540   -0.4470   48.8080 C   0  0  0  0  0  0  0  0  0  0  0  0
    0.5810    8.4370   54.7420 C   0  0  0  0  0  0  0  0  0  0  0  0
    2.8170    9.0720   55.4090 C   0  0  0  0  0  0  0  0  0  0  0  0
    1.3340   -0.5860   50.0050 C   0  0  0  0  0  0  0  0  0  0  0  0
    0.6020    0.7830   48.1750 C   0  0  0  0  0  0  0  0  0  0  0  0
    1.9310    8.6290   54.4140 C   0  0  0  0  0  0  0  0  0  0  0  0
    1.8510    1.7900   50.0100 C   0  0  0  0  0  0  0  0  0  0  0  0
    1.9090    0.5240   50.6140 C   0  0  0  0  0  0  0  0  0  0  0  0
    1.2270    1.8910   48.7510 C   0  0  0  0  0  0  0  0  0  0  0  0
    3.6510    6.1150   49.3630 C   0  0  0  0  0  0  0  0  0  0  0  0
    3.1790    7.0010   50.3630 C   0  0  0  0  0  0  0  0  0  0  0  0
    3.3510    4.7890   49.4150 C   0  0  0  0  0  0  0  0  0  0  0  0
    2.2880    6.5500   51.2850 C   0  0  0  0  0  0  0  0  0  0  0  0
    1.7450    5.2360   51.1450 C   0  0  0  0  0  0  0  0  0  0  0  0
    2.4340    8.3340   53.0780 C   0  0  0  0  0  0  0  0  0  0  0  0
    2.5110    2.9160   50.7920 C   0  0  0  0  0  0  0  0  0  0  0  0
    2.4790    4.3250   50.3910 N   0  0  0  0  0  0  0  0  0  0  0  0
    1.8150    7.2960   52.4040 N   0  0  0  0  0  0  0  0  0  0  0  0
    0.6720    4.8960   51.6320 O   0  0  0  0  0  0  0  0  0  0  0  0
    3.3970    8.9150   52.5950 O   0  0  0  0  0  0  0  0  0  0  0  0
    2.7160    0.2550   52.1360 Cl  0  0  0  0  0  0  0  0  0  0  0  0
    1.2190    3.3280   47.7980 Cl  0  0  0  0  0  0  0  0  0  0  0  0
  1  2  2  0
  1  3  1  0
  2  5  1  0
  3  6  2  0
  4  7  2  0
  4  8  1  0
  5  9  2  0
  6  9  1  0
  7 11  1  0
  8 12  2  0
  9 18  1  0
 10 11  2  0
 10 12  1  0
 10 19  1  0
 11 24  1  0
 12 25  1  0
 13 14  1  0
 13 15  2  0
 14 16  2  0
 15 20  1  0
 16 17  1  0
 16 21  1  0
 17 20  1  0
 17 22  2  0
 18 21  1  0
 18 23  2  0
 19 20  1  0
M  END
>  <washed_aromatic_smiles>  (137) 
c1ccc(cc1)C(=O)Nc2cccn(c2=O)Cc3c(cccc3Cl)Cl

>  <name>  (137) 
neg234261

$$$$
neg232079
     RDKit          3D

 29 31  0  0  0  0  0  0  0  0999 V2000
    2.7810   -0.6840   54.4810 C   0  0  0  0  0  0  0  0  0  0  0  0
    2.8110    0.6180   54.9200 C   0  0  0  0  0  0  0  0  0  0  0  0
    2.7910   -0.9780   53.1210 C   0  0  0  0  0  0  0  0  0  0  0  0
    2.7860    1.6290   53.9960 C   0  0  0  0  0  0  0  0  0  0  0  0
    2.8350    0.0470   52.1900 C   0  0  0  0  0  0  0  0  0  0  0  0
    1.6380    3.3130   48.1300 C   0  0  0  0  0  0  0  0  0  0  0  0
    0.8150    2.2390   47.8630 C   0  0  0  0  0  0  0  0  0  0  0  0
    1.1350    1.4410   50.1210 C   0  0  0  0  0  0  0  0  0  0  0  0
    2.7730    1.3770   52.6210 C   0  0  0  0  0  0  0  0  0  0  0  0
    2.0350    2.4680   50.4020 C   0  0  0  0  0  0  0  0  0  0  0  0
    2.2680    3.4070   49.3700 C   0  0  0  0  0  0  0  0  0  0  0  0
    0.5970    1.2970   48.8600 C   0  0  0  0  0  0  0  0  0  0  0  0
    2.6550    2.5200   51.7200 C   0  0  0  0  0  0  0  0  0  0  0  0
    1.7390    7.6830   52.8380 C   0  0  0  0  0  0  0  0  0  0  0  0
    2.9770    5.6800   49.9520 C   0  0  0  0  0  0  0  0  0  0  0  0
    6.4570    9.9270   53.7550 C   0  0  0  0  0  0  0  0  0  0  0  0
    5.9100    8.6180   54.3860 C   0  0  0  0  0  0  0  0  0  0  0  0
    5.5990   10.9370   52.9690 C   0  0  0  0  0  0  0  0  0  0  0  0
    4.3760    8.4530   54.2980 C   0  0  0  0  0  0  0  0  0  0  0  0
    4.1200   10.6780   53.2530 C   0  0  0  0  0  0  0  0  0  0  0  0
    2.2190    9.0790   53.2420 C   0  0  0  0  0  0  0  0  0  0  0  0
    1.8930    6.0250   50.9720 C   0  0  0  0  0  0  0  0  0  0  0  0
    3.6970    9.2370   53.2080 N   0  0  0  0  0  0  0  0  0  0  0  0
    3.2000    4.4340   49.4540 N   0  0  0  0  0  0  0  0  0  0  0  0
    2.3030    7.1920   51.7370 N   0  0  0  0  0  0  0  0  0  0  0  0
    2.9720    3.5940   52.1780 O   0  0  0  0  0  0  0  0  0  0  0  0
    0.8670    7.1090   53.4810 O   0  0  0  0  0  0  0  0  0  0  0  0
    3.7070    6.5350   49.4950 O   0  0  0  0  0  0  0  0  0  0  0  0
   -0.4090   -0.2280   48.5320 Br  0  0  0  0  0  0  0  0  0  0  0  0
  1  2  2  0
  1  3  1  0
  2  4  1  0
  3  5  2  0
  4  9  2  0
  5  9  1  0
  6  7  2  0
  6 11  1  0
  7 12  1  0
  8 10  1  0
  8 12  2  0
  9 13  1  0
 10 11  2  0
 10 13  1  0
 11 24  1  0
 12 29  1  0
 13 26  2  0
 14 21  1  0
 14 25  1  0
 14 27  2  0
 15 22  1  0
 15 24  1  0
 15 28  2  0
 16 17  1  0
 16 18  1  0
 17 19  1  0
 18 20  1  0
 19 23  1  0
 20 23  1  0
 21 23  1  0
 22 25  1  0
M  CHG  1  23   1
M  END
>  <washed_aromatic_smiles>  (138) 
c1ccc(cc1)C(=O)c2cc(ccc2NC(=O)CNC(=O)CN3CCCCC3)Br

>  <name>  (138) 
neg232079

$$$$
neg108725
     RDKit          3D

 27 29  0  0  0  0  0  0  0  0999 V2000
    1.5710    2.0280   49.5970 C   0  0  0  0  0  0  0  0  0  0  0  0
    1.4360    3.0100   48.6210 C   0  0  0  0  0  0  0  0  0  0  0  0
    2.0760    2.3610   50.8510 C   0  0  0  0  0  0  0  0  0  0  0  0
    1.8090    4.3200   48.8960 C   0  0  0  0  0  0  0  0  0  0  0  0
    2.4480    3.6730   51.1280 C   0  0  0  0  0  0  0  0  0  0  0  0
    3.0440    8.0730   51.8070 C   0  0  0  0  0  0  0  0  0  0  0  0
    1.4430    6.4230   52.4870 C   0  0  0  0  0  0  0  0  0  0  0  0
    3.9020   10.3660   57.7360 C   0  0  0  0  0  0  0  0  0  0  0  0
    2.8770    8.7720   52.9870 C   0  0  0  0  0  0  0  0  0  0  0  0
    1.2330    7.1430   53.6600 C   0  0  0  0  0  0  0  0  0  0  0  0
    2.9610   10.2410   56.7380 C   0  0  0  0  0  0  0  0  0  0  0  0
    3.7750    8.0120   56.2610 C   0  0  0  0  0  0  0  0  0  0  0  0
    2.3270    4.6690   50.1520 C   0  0  0  0  0  0  0  0  0  0  0  0
    2.4200    6.8360   51.5700 C   0  0  0  0  0  0  0  0  0  0  0  0
    4.7240    9.2940   58.0820 C   0  0  0  0  0  0  0  0  0  0  0  0
    4.6780    8.0990   57.3280 C   0  0  0  0  0  0  0  0  0  0  0  0
    1.9930    8.2740   53.9260 C   0  0  0  0  0  0  0  0  0  0  0  0
    2.8830    9.0540   56.0200 C   0  0  0  0  0  0  0  0  0  0  0  0
    2.7950    6.0300   50.3940 C   0  0  0  0  0  0  0  0  0  0  0  0
    5.5370    9.4410   59.2700 C   0  0  0  0  0  0  0  0  0  0  0  0
    5.5090    6.9490   57.6840 C   0  0  0  0  0  0  0  0  0  0  0  0
    3.5620    6.4940   49.5610 O   0  0  0  0  0  0  0  0  0  0  0  0
    5.6550    8.4780   60.0730 O   0  0  0  0  0  0  0  0  0  0  0  0
    6.7410    7.1110   57.9100 O   0  0  0  0  0  0  0  0  0  0  0  0
    6.0270   10.5750   59.5180 O   0  0  0  0  0  0  0  0  0  0  0  0
    4.9730    5.8130   57.7630 O   0  0  0  0  0  0  0  0  0  0  0  0
    1.8540    8.9170   55.1150 O   0  0  0  0  0  0  0  0  0  0  0  0
  1  2  2  0
  1  3  1  0
  2  4  1  0
  3  5  2  0
  4 13  2  0
  5 13  1  0
  6  9  2  0
  6 14  1  0
  7 10  1  0
  7 14  2  0
  8 11  2  0
  8 15  1  0
  9 17  1  0
 10 17  2  0
 11 18  1  0
 12 16  1  0
 12 18  2  0
 13 19  1  0
 14 19  1  0
 15 16  2  0
 15 20  1  0
 16 21  1  0
 17 27  1  0
 18 27  1  0
 19 22  2  0
 20 23  1  0
 20 25  2  0
 21 24  1  0
 21 26  2  0
M  CHG  2  23  -1  24  -1
M  END
>  <washed_aromatic_smiles>  (139) 
c1ccc(cc1)C(=O)c2ccc(cc2)Oc3ccc(c(c3)C(=O)O)C(=O)O

>  <name>  (139) 
neg108725

$$$$
neg226125
     RDKit          3D

 25 27  0  0  0  0  0  0  0  0999 V2000
    0.1100    1.9510   46.7960 C   0  0  0  0  0  0  0  0  0  0  0  0
    1.1990    2.4890   47.4690 C   0  0  0  0  0  0  0  0  0  0  0  0
   -0.5110    0.8150   47.2840 C   0  0  0  0  0  0  0  0  0  0  0  0
    1.5970   -0.2550   53.8090 C   0  0  0  0  0  0  0  0  0  0  0  0
    2.8800    0.2690   53.9330 C   0  0  0  0  0  0  0  0  0  0  0  0
    1.6820    1.8510   48.6000 C   0  0  0  0  0  0  0  0  0  0  0  0
   -0.0530    0.1940   48.4210 C   0  0  0  0  0  0  0  0  0  0  0  0
    0.8860   -0.0210   52.6410 C   0  0  0  0  0  0  0  0  0  0  0  0
    3.3360    1.1660   52.9720 C   0  0  0  0  0  0  0  0  0  0  0  0
    0.5000    6.6370   52.1110 C   0  0  0  0  0  0  0  0  0  0  0  0
    2.8790    6.4370   51.8940 C   0  0  0  0  0  0  0  0  0  0  0  0
    0.6760    7.5410   53.1570 C   0  0  0  0  0  0  0  0  0  0  0  0
    3.0630    7.2960   52.9680 C   0  0  0  0  0  0  0  0  0  0  0  0
    1.0320    0.7240   49.1030 C   0  0  0  0  0  0  0  0  0  0  0  0
    1.5020    0.6620   51.6010 C   0  0  0  0  0  0  0  0  0  0  0  0
    2.4850    1.5840   51.9540 C   0  0  0  0  0  0  0  0  0  0  0  0
    1.6060    6.0580   51.4820 C   0  0  0  0  0  0  0  0  0  0  0  0
    1.9600    7.8340   53.6150 C   0  0  0  0  0  0  0  0  0  0  0  0
    1.4560    0.0500   50.2950 C   0  0  0  0  0  0  0  0  0  0  0  0
    2.4620    3.0100   51.6370 C   0  0  0  0  0  0  0  0  0  0  0  0
    1.4950    5.0280   50.3590 C   0  0  0  0  0  0  0  0  0  0  0  0
    1.7740   -1.1240   50.2050 O   0  0  0  0  0  0  0  0  0  0  0  0
    3.0360    3.7770   52.3650 O   0  0  0  0  0  0  0  0  0  0  0  0
    1.5950    3.5820   50.7560 O   0  0  0  0  0  0  0  0  0  0  0  0
    2.2170    8.8350   55.0020 Cl  0  0  0  0  0  0  0  0  0  0  0  0
  1  2  2  0
  1  3  1  0
  2  6  1  0
  3  7  2  0
  4  5  2  0
  4  8  1  0
  5  9  1  0
  6 14  2  0
  7 14  1  0
  8 15  2  0
  9 16  2  0
 10 12  2  0
 10 17  1  0
 11 13  1  0
 11 17  2  0
 12 18  1  0
 13 18  2  0
 14 19  1  0
 15 16  1  0
 15 19  1  0
 16 20  1  0
 17 21  1  0
 18 25  1  0
 19 22  2  0
 20 23  2  0
 20 24  1  0
 21 24  1  0
M  END
>  <washed_aromatic_smiles>  (140) 
c1ccc(cc1)C(=O)c2ccccc2C(=O)OCc3ccc(cc3)Cl

>  <name>  (140) 
neg226125

$$$$
neg224135
     RDKit          3D

 26 28  0  0  0  0  0  0  0  0999 V2000
    2.1380   -0.1460   54.1680 C   0  0  0  0  0  0  0  0  0  0  0  0
    0.3350    0.8550   47.0620 C   0  0  0  0  0  0  0  0  0  0  0  0
    1.1110   -0.2500   53.2490 C   0  0  0  0  0  0  0  0  0  0  0  0
    3.1350    0.7840   53.9600 C   0  0  0  0  0  0  0  0  0  0  0  0
    0.3440    2.2160   47.2960 C   0  0  0  0  0  0  0  0  0  0  0  0
    0.8360   -0.0100   48.0210 C   0  0  0  0  0  0  0  0  0  0  0  0
    1.0510    0.5940   52.1440 C   0  0  0  0  0  0  0  0  0  0  0  0
    3.1460    1.5430   52.7940 C   0  0  0  0  0  0  0  0  0  0  0  0
    0.9150    2.7290   48.4500 C   0  0  0  0  0  0  0  0  0  0  0  0
    1.3790    0.4990   49.1880 C   0  0  0  0  0  0  0  0  0  0  0  0
    4.1260    9.5570   53.3790 C   0  0  0  0  0  0  0  0  0  0  0  0
    2.3460    8.5720   54.7040 C   0  0  0  0  0  0  0  0  0  0  0  0
    4.6530   10.1420   54.5250 C   0  0  0  0  0  0  0  0  0  0  0  0
    2.8720    9.1610   55.8480 C   0  0  0  0  0  0  0  0  0  0  0  0
    2.1020    1.4760   51.8780 C   0  0  0  0  0  0  0  0  0  0  0  0
    1.4500    1.8740   49.4120 C   0  0  0  0  0  0  0  0  0  0  0  0
    2.9840    8.7590   53.4770 C   0  0  0  0  0  0  0  0  0  0  0  0
    4.0300    9.9410   55.7620 C   0  0  0  0  0  0  0  0  0  0  0  0
    2.8160    6.7910   52.0490 C   0  0  0  0  0  0  0  0  0  0  0  0
    1.9480    3.8830   51.0340 C   0  0  0  0  0  0  0  0  0  0  0  0
    2.6720    5.0100   50.2800 C   0  0  0  0  0  0  0  0  0  0  0  0
    2.1780    2.3960   50.6470 C   0  0  0  0  0  0  0  0  0  0  0  0
    2.4750    8.1110   52.3310 N   0  0  0  0  0  0  0  0  0  0  0  0
    2.3360    6.3250   50.8360 N   0  0  0  0  0  0  0  0  0  0  0  0
    3.7480    5.8740   53.0840 S   0  0  0  0  0  0  0  0  0  0  0  0
    4.6850   10.6700   57.1910 Cl  0  0  0  0  0  0  0  0  0  0  0  0
  1  3  2  0
  1  4  1  0
  2  5  2  0
  2  6  1  0
  3  7  1  0
  4  8  2  0
  5  9  1  0
  6 10  2  0
  7 15  2  0
  8 15  1  0
  9 16  2  0
 10 16  1  0
 11 13  2  0
 11 17  1  0
 12 14  1  0
 12 17  2  0
 13 18  1  0
 14 18  2  0
 15 22  1  0
 16 22  1  0
 17 23  1  0
 18 26  1  0
 19 23  1  0
 19 24  1  0
 19 25  2  0
 20 21  1  0
 20 22  1  0
 21 24  1  0
M  END
>  <washed_aromatic_smiles>  (141) 
c1ccc(cc1)C(CCNC(=S)Nc2ccc(cc2)Cl)c3ccccc3

>  <name>  (141) 
neg224135

$$$$
neg110220
     RDKit          3D

 31 35  0  0  0  0  0  0  0  0999 V2000
    0.0730    8.4830   55.8790 C   0  0  0  0  0  0  0  0  0  0  0  0
    4.7280    9.5210   52.4570 C   0  0  0  0  0  0  0  0  0  0  0  0
    4.9950    5.4580   57.6050 C   0  0  0  0  0  0  0  0  0  0  0  0
    0.5360    8.8420   57.1290 C   0  0  0  0  0  0  0  0  0  0  0  0
    0.8740    8.6190   54.7570 C   0  0  0  0  0  0  0  0  0  0  0  0
    5.6190   10.4120   51.8400 C   0  0  0  0  0  0  0  0  0  0  0  0
    5.8900    5.3000   58.6840 C   0  0  0  0  0  0  0  0  0  0  0  0
    4.8700    9.2420   53.7880 C   0  0  0  0  0  0  0  0  0  0  0  0
    4.6800    6.7190   57.1110 C   0  0  0  0  0  0  0  0  0  0  0  0
    1.8750    9.1660   57.2430 C   0  0  0  0  0  0  0  0  0  0  0  0
    2.1470    9.1570   54.8970 C   0  0  0  0  0  0  0  0  0  0  0  0
    6.3530   11.2800   52.5810 C   0  0  0  0  0  0  0  0  0  0  0  0
    6.4580    6.4090   59.2760 C   0  0  0  0  0  0  0  0  0  0  0  0
    5.4140   10.2550   54.5520 C   0  0  0  0  0  0  0  0  0  0  0  0
    5.1690    7.8510   57.7550 C   0  0  0  0  0  0  0  0  0  0  0  0
    2.6970    9.4040   56.1700 C   0  0  0  0  0  0  0  0  0  0  0  0
    4.9740   10.7570   55.7620 C   0  0  0  0  0  0  0  0  0  0  0  0
    4.9000    9.2310   57.6460 C   0  0  0  0  0  0  0  0  0  0  0  0
    6.1290   11.2570   53.9360 C   0  0  0  0  0  0  0  0  0  0  0  0
    6.0730    7.6640   58.7910 C   0  0  0  0  0  0  0  0  0  0  0  0
    5.4200   12.0480   55.8320 C   0  0  0  0  0  0  0  0  0  0  0  0
    5.6280    9.8400   58.6310 C   0  0  0  0  0  0  0  0  0  0  0  0
    4.9430   13.2440   56.4240 C   0  0  0  0  0  0  0  0  0  0  0  0
    5.5180   11.1880   59.1290 C   0  0  0  0  0  0  0  0  0  0  0  0
    4.0290   10.0280   56.6600 C   0  0  0  0  0  0  0  0  0  0  0  0
    6.2340   12.2960   54.7850 N   0  0  0  0  0  0  0  0  0  0  0  0
    6.4050    8.8980   59.2510 N   0  0  0  0  0  0  0  0  0  0  0  0
    4.0300   13.7750   55.7470 O   0  0  0  0  0  0  0  0  0  0  0  0
    6.4620   11.8970   59.5540 O   0  0  0  0  0  0  0  0  0  0  0  0
    5.5590   13.8050   57.3630 O   0  0  0  0  0  0  0  0  0  0  0  0
    4.3690   11.5730   59.2350 O   0  0  0  0  0  0  0  0  0  0  0  0
  1  4  2  0
  1  5  1  0
  2  6  2  0
  2  8  1  0
  3  7  2  0
  3  9  1  0
  4 10  1  0
  5 11  2  0
  6 12  1  0
  7 13  1  0
  8 14  2  0
  9 15  2  0
 10 16  2  0
 11 16  1  0
 12 19  2  0
 13 20  2  0
 14 17  1  0
 14 19  1  0
 15 18  1  0
 15 20  1  0
 16 25  1  0
 17 21  2  0
 17 25  1  0
 18 22  2  0
 18 25  1  0
 19 26  1  0
 20 27  1  0
 21 23  1  0
 21 26  1  0
 22 24  1  0
 22 27  1  0
 23 28  1  0
 23 30  2  0
 24 29  1  0
 24 31  2  0
M  CHG  2  28  -1  29  -1
M  END
>  <washed_aromatic_smiles>  (142) 
c1ccc(cc1)C(c2c3ccccc3[nH]c2C(=O)O)c4c5ccccc5[nH]c4C(=O)O

>  <name>  (142) 
neg110220

$$$$
neg326746
     RDKit          3D

 26 28  0  0  0  0  0  0  0  0999 V2000
    2.7730   -1.1670   52.7750 C   0  0  0  0  0  0  0  0  0  0  0  0
    0.5430    0.6660   46.7580 C   0  0  0  0  0  0  0  0  0  0  0  0
    1.6450   -0.5230   53.2600 C   0  0  0  0  0  0  0  0  0  0  0  0
    3.4720   -0.6360   51.6930 C   0  0  0  0  0  0  0  0  0  0  0  0
    0.9030   -0.1870   47.7860 C   0  0  0  0  0  0  0  0  0  0  0  0
    0.3570    2.0070   47.0310 C   0  0  0  0  0  0  0  0  0  0  0  0
    0.7550    8.5630   55.2040 C   0  0  0  0  0  0  0  0  0  0  0  0
    1.1950    0.6180   52.6220 C   0  0  0  0  0  0  0  0  0  0  0  0
    3.1010    0.5590   51.1460 C   0  0  0  0  0  0  0  0  0  0  0  0
    1.0740    0.3060   49.0650 C   0  0  0  0  0  0  0  0  0  0  0  0
    0.6860    2.5270   48.2750 C   0  0  0  0  0  0  0  0  0  0  0  0
    2.0180    8.2000   54.7650 C   0  0  0  0  0  0  0  0  0  0  0  0
   -0.0140    8.6980   54.1050 C   0  0  0  0  0  0  0  0  0  0  0  0
    1.9250    1.1470   51.5620 C   0  0  0  0  0  0  0  0  0  0  0  0
    1.0610    1.6860   49.3160 C   0  0  0  0  0  0  0  0  0  0  0  0
    1.9240    8.1110   53.4190 C   0  0  0  0  0  0  0  0  0  0  0  0
    2.9080    7.8950   52.4250 C   0  0  0  0  0  0  0  0  0  0  0  0
    2.3570    3.4460   50.8340 C   0  0  0  0  0  0  0  0  0  0  0  0
    2.8080    6.4950   50.4920 C   0  0  0  0  0  0  0  0  0  0  0  0
    3.5030    5.3660   49.7500 C   0  0  0  0  0  0  0  0  0  0  0  0
    1.4150    2.2510   50.7080 C   0  0  0  0  0  0  0  0  0  0  0  0
    3.0200    6.6290   51.9160 N   0  0  0  0  0  0  0  0  0  0  0  0
    2.6910    4.1540   49.7490 N   0  0  0  0  0  0  0  0  0  0  0  0
    3.5520    8.8380   51.9880 O   0  0  0  0  0  0  0  0  0  0  0  0
    2.7600    3.7780   51.9450 O   0  0  0  0  0  0  0  0  0  0  0  0
    0.6690    8.3960   53.0130 O   0  0  0  0  0  0  0  0  0  0  0  0
  1  3  2  0
  1  4  1  0
  2  5  2  0
  2  6  1  0
  3  8  1  0
  4  9  2  0
  5 10  1  0
  6 11  2  0
  7 12  1  0
  7 13  2  0
  8 14  2  0
  9 14  1  0
 10 15  2  0
 11 15  1  0
 12 16  2  0
 13 26  1  0
 14 21  1  0
 15 21  1  0
 16 17  1  0
 16 26  1  0
 17 22  1  0
 17 24  2  0
 18 21  1  0
 18 23  1  0
 18 25  2  0
 19 20  1  0
 19 22  1  0
 20 23  1  0
M  END
>  <washed_aromatic_smiles>  (143) 
c1ccc(cc1)C(c2ccccc2)C(=O)NCCNC(=O)c3ccco3

>  <name>  (143) 
neg326746

$$$$
neg106832
     RDKit          3D

 27 30  0  0  0  0  0  0  0  0999 V2000
    1.2890    4.2970   47.6390 C   0  0  0  0  0  0  0  0  0  0  0  0
    1.3140   -0.4270   53.2590 C   0  0  0  0  0  0  0  0  0  0  0  0
    2.3300    5.0000   48.2230 C   0  0  0  0  0  0  0  0  0  0  0  0
    1.0500    2.9740   47.9670 C   0  0  0  0  0  0  0  0  0  0  0  0
    0.4930    0.2320   52.3580 C   0  0  0  0  0  0  0  0  0  0  0  0
    2.6180    0.0020   53.4590 C   0  0  0  0  0  0  0  0  0  0  0  0
    4.9890   10.5780   53.8340 C   0  0  0  0  0  0  0  0  0  0  0  0
    5.1080   10.8370   55.1980 C   0  0  0  0  0  0  0  0  0  0  0  0
    2.9790    4.4640   49.3000 C   0  0  0  0  0  0  0  0  0  0  0  0
    1.6960    2.4400   49.0620 C   0  0  0  0  0  0  0  0  0  0  0  0
    0.9490    1.3570   51.7060 C   0  0  0  0  0  0  0  0  0  0  0  0
    3.0860    1.1150   52.7720 C   0  0  0  0  0  0  0  0  0  0  0  0
    3.9390    9.7960   53.3550 C   0  0  0  0  0  0  0  0  0  0  0  0
    4.1950   10.2880   56.0910 C   0  0  0  0  0  0  0  0  0  0  0  0
    2.5160    3.2710   49.8280 C   0  0  0  0  0  0  0  0  0  0  0  0
    2.2490    1.8190   51.9100 C   0  0  0  0  0  0  0  0  0  0  0  0
    2.9870    9.2660   54.2270 C   0  0  0  0  0  0  0  0  0  0  0  0
    3.1540    9.5120   55.5920 C   0  0  0  0  0  0  0  0  0  0  0  0
    3.2490    6.6240   53.2790 C   0  0  0  0  0  0  0  0  0  0  0  0
    0.9640    6.5720   52.4200 C   0  0  0  0  0  0  0  0  0  0  0  0
    3.5880    5.3840   52.4560 C   0  0  0  0  0  0  0  0  0  0  0  0
    1.2830    5.3090   51.5850 C   0  0  0  0  0  0  0  0  0  0  0  0
    1.7920    8.4890   53.6740 C   0  0  0  0  0  0  0  0  0  0  0  0
    2.7760    3.1020   51.2910 C   0  0  0  0  0  0  0  0  0  0  0  0
    2.1490    7.4140   52.7260 N   0  0  0  0  0  0  0  0  0  0  0  0
    2.4510    4.4580   52.1030 N   0  0  0  0  0  0  0  0  0  0  0  0
    2.2690    9.0190   56.4870 F   0  0  0  0  0  0  0  0  0  0  0  0
  1  3  2  0
  1  4  1  0
  2  5  2  0
  2  6  1  0
  3  9  1  0
  4 10  2  0
  5 11  1  0
  6 12  2  0
  7  8  2  0
  7 13  1  0
  8 14  1  0
  9 15  2  0
 10 15  1  0
 11 16  2  0
 12 16  1  0
 13 17  2  0
 14 18  2  0
 15 24  1  0
 16 24  1  0
 17 18  1  0
 17 23  1  0
 18 27  1  0
 19 21  1  0
 19 25  1  0
 20 22  1  0
 20 25  1  0
 21 26  1  0
 22 26  1  0
 23 25  1  0
 24 26  1  0
M  CHG  1  26   1
M  END
>  <washed_aromatic_smiles>  (144) 
c1ccc(cc1)C(c2ccccc2)N3CCN(CC3)Cc4ccccc4F

>  <name>  (144) 
neg106832

$$$$
neg201957
     RDKit          3D

 30 33  0  0  0  0  0  0  0  0999 V2000
    0.4660    0.6690   46.9530 C   0  0  0  0  0  0  0  0  0  0  0  0
    2.1370   -0.1320   54.1300 C   0  0  0  0  0  0  0  0  0  0  0  0
    0.4250    2.0330   47.1500 C   0  0  0  0  0  0  0  0  0  0  0  0
    0.9050   -0.1640   47.9700 C   0  0  0  0  0  0  0  0  0  0  0  0
    3.1220    0.8020   53.8890 C   0  0  0  0  0  0  0  0  0  0  0  0
    1.0920   -0.2540   53.2360 C   0  0  0  0  0  0  0  0  0  0  0  0
    4.8500   12.1020   53.0670 C   0  0  0  0  0  0  0  0  0  0  0  0
    6.2030   11.8770   53.1220 C   0  0  0  0  0  0  0  0  0  0  0  0
    0.9460    2.5860   48.3070 C   0  0  0  0  0  0  0  0  0  0  0  0
    1.3530    0.3800   49.1610 C   0  0  0  0  0  0  0  0  0  0  0  0
    3.1040    1.5490   52.7160 C   0  0  0  0  0  0  0  0  0  0  0  0
    0.9980    0.5820   52.1270 C   0  0  0  0  0  0  0  0  0  0  0  0
    4.0150   11.0130   53.1590 C   0  0  0  0  0  0  0  0  0  0  0  0
    6.6900   10.5880   53.2770 C   0  0  0  0  0  0  0  0  0  0  0  0
    1.4200    1.7620   49.3330 C   0  0  0  0  0  0  0  0  0  0  0  0
    2.0330    1.4720   51.8270 C   0  0  0  0  0  0  0  0  0  0  0  0
    4.4810    9.7540   53.5090 C   0  0  0  0  0  0  0  0  0  0  0  0
    5.8490    9.5550   53.6200 C   0  0  0  0  0  0  0  0  0  0  0  0
    1.8760    4.6270   51.6470 C   0  0  0  0  0  0  0  0  0  0  0  0
    3.1900    8.6580   52.0490 C   0  0  0  0  0  0  0  0  0  0  0  0
    2.4010    8.5250   54.2080 C   0  0  0  0  0  0  0  0  0  0  0  0
    2.7020    7.3030   51.6530 C   0  0  0  0  0  0  0  0  0  0  0  0
    1.6800    7.2160   53.8060 C   0  0  0  0  0  0  0  0  0  0  0  0
    0.8810    5.7920   51.8720 C   0  0  0  0  0  0  0  0  0  0  0  0
    2.0410    2.3730   50.5810 C   0  0  0  0  0  0  0  0  0  0  0  0
    3.6350    8.6610   53.4230 N   0  0  0  0  0  0  0  0  0  0  0  0
    1.4490    7.0750   52.3400 N   0  0  0  0  0  0  0  0  0  0  0  0
    1.4550    3.6890   50.8070 N   0  0  0  0  0  0  0  0  0  0  0  0
    2.8920    4.4800   52.3150 O   0  0  0  0  0  0  0  0  0  0  0  0
    6.3790    8.3490   53.9940 O   0  0  0  0  0  0  0  0  0  0  0  0
  1  3  2  0
  1  4  1  0
  2  5  2  0
  2  6  1  0
  3  9  1  0
  4 10  2  0
  5 11  1  0
  6 12  2  0
  7  8  2  0
  7 13  1  0
  8 14  1  0
  9 15  2  0
 10 15  1  0
 11 16  2  0
 12 16  1  0
 13 17  2  0
 14 18  2  0
 15 25  1  0
 16 25  1  0
 17 18  1  0
 17 26  1  0
 18 30  1  0
 19 24  1  0
 19 28  1  0
 19 29  2  0
 20 22  1  0
 20 26  1  0
 21 23  1  0
 21 26  1  0
 22 27  1  0
 23 27  1  0
 24 27  1  0
 25 28  1  0
M  END
>  <washed_aromatic_smiles>  (145) 
c1ccc(cc1)C(c2ccccc2)NC(=O)CN3CCN(CC3)c4ccccc4O

>  <name>  (145) 
neg201957

$$$$
neg84656
     RDKit          3D

 26 28  0  0  0  0  0  0  0  0999 V2000
    3.4600   -0.3790   55.3090 C   0  0  0  0  0  0  0  0  0  0  0  0
    2.8170    5.5290   49.9750 C   0  0  0  0  0  0  0  0  0  0  0  0
    3.2520    0.9840   55.3510 C   0  0  0  0  0  0  0  0  0  0  0  0
    3.1030   -1.0650   54.1640 C   0  0  0  0  0  0  0  0  0  0  0  0
    2.2510    4.5190   49.2130 C   0  0  0  0  0  0  0  0  0  0  0  0
    3.0520    5.3160   51.3210 C   0  0  0  0  0  0  0  0  0  0  0  0
    2.7590    1.6360   54.2280 C   0  0  0  0  0  0  0  0  0  0  0  0
    2.5220   -0.4280   53.0950 C   0  0  0  0  0  0  0  0  0  0  0  0
    1.9530    3.2920   49.7950 C   0  0  0  0  0  0  0  0  0  0  0  0
    2.7800    4.0790   51.8900 C   0  0  0  0  0  0  0  0  0  0  0  0
    2.4070    0.9660   53.0570 C   0  0  0  0  0  0  0  0  0  0  0  0
    2.2340    3.0310   51.1500 C   0  0  0  0  0  0  0  0  0  0  0  0
    2.3510    0.6670   50.6700 C   0  0  0  0  0  0  0  0  0  0  0  0
    0.0860    0.6050   50.6890 C   0  0  0  0  0  0  0  0  0  0  0  0
    1.1480   -0.6790   47.7840 C   0  0  0  0  0  0  0  0  0  0  0  0
    0.4180    1.1820   46.4120 C   0  0  0  0  0  0  0  0  0  0  0  0
    1.8970    1.6150   51.7270 C   0  0  0  0  0  0  0  0  0  0  0  0
    1.2020   -1.0270   49.2400 C   0  0  0  0  0  0  0  0  0  0  0  0
    0.4540    1.4310   51.6760 N   0  0  0  0  0  0  0  0  0  0  0  0
    1.2310    0.0880   50.1340 N   0  0  0  0  0  0  0  0  0  0  0  0
   -0.1100    2.3780   46.6940 N   0  0  0  0  0  0  0  0  0  0  0  0
    0.3890    0.4170   47.5340 N   0  0  0  0  0  0  0  0  0  0  0  0
    3.5040    0.3510   50.4650 O   0  0  0  0  0  0  0  0  0  0  0  0
   -1.0610    0.3850   50.3300 O   0  0  0  0  0  0  0  0  0  0  0  0
    1.7450   -1.2770   46.9120 O   0  0  0  0  0  0  0  0  0  0  0  0
    0.8880    0.8720   45.3230 O   0  0  0  0  0  0  0  0  0  0  0  0
  1  3  2  0
  1  4  1  0
  2  5  2  0
  2  6  1  0
  3  7  1  0
  4  8  2  0
  5  9  1  0
  6 10  2  0
  7 11  2  0
  8 11  1  0
  9 12  2  0
 10 12  1  0
 11 17  1  0
 12 17  1  0
 13 17  1  0
 13 20  1  0
 13 23  2  0
 14 19  1  0
 14 20  1  0
 14 24  2  0
 15 18  1  0
 15 22  1  0
 15 25  2  0
 16 21  1  0
 16 22  1  0
 16 26  2  0
 17 19  1  0
 18 20  1  0
M  END
>  <washed_aromatic_smiles>  (146) 
c1ccc(cc1)C2(C(=O)N(C(=O)N2)CC(=O)NC(=O)N)c3ccccc3

>  <name>  (146) 
neg84656

$$$$
neg305053
     RDKit          3D

 32 35  0  0  0  0  0  0  0  0999 V2000
    3.9010   -0.5050   55.6690 C   0  0  0  0  0  0  0  0  0  0  0  0
    3.5280    0.8180   55.8740 C   0  0  0  0  0  0  0  0  0  0  0  0
    4.9330   -1.0620   56.4260 C   0  0  0  0  0  0  0  0  0  0  0  0
    4.1730    1.5710   56.8440 C   0  0  0  0  0  0  0  0  0  0  0  0
    5.5610   -0.3150   57.4070 C   0  0  0  0  0  0  0  0  0  0  0  0
    5.1370    8.3460   53.8860 C   0  0  0  0  0  0  0  0  0  0  0  0
    3.3810    7.2790   54.9830 C   0  0  0  0  0  0  0  0  0  0  0  0
    5.7880    8.4980   55.1120 C   0  0  0  0  0  0  0  0  0  0  0  0
    3.9340    7.6050   56.2140 C   0  0  0  0  0  0  0  0  0  0  0  0
    5.1800    1.0060   57.6280 C   0  0  0  0  0  0  0  0  0  0  0  0
    3.9730    7.5650   53.7670 C   0  0  0  0  0  0  0  0  0  0  0  0
    5.1980    8.1170   56.3170 C   0  0  0  0  0  0  0  0  0  0  0  0
    5.8850    1.7860   58.6170 C   0  0  0  0  0  0  0  0  0  0  0  0
    5.3900    2.1540   59.8090 C   0  0  0  0  0  0  0  0  0  0  0  0
    0.2920    9.4710   52.6880 C   0  0  0  0  0  0  0  0  0  0  0  0
   -0.0270    8.6320   53.8800 C   0  0  0  0  0  0  0  0  0  0  0  0
    1.7300    9.1220   52.6540 C   0  0  0  0  0  0  0  0  0  0  0  0
    0.4790    7.2960   53.3970 C   0  0  0  0  0  0  0  0  0  0  0  0
    7.0840    4.6040   59.1580 C   0  0  0  0  0  0  0  0  0  0  0  0
    5.0470    5.0570   60.3410 C   0  0  0  0  0  0  0  0  0  0  0  0
    7.1970    6.0870   58.8020 C   0  0  0  0  0  0  0  0  0  0  0  0
    5.1900    6.5310   59.9520 C   0  0  0  0  0  0  0  0  0  0  0  0
    6.2000    2.9810   60.7880 C   0  0  0  0  0  0  0  0  0  0  0  0
    6.3510    4.4010   60.4280 N   0  0  0  0  0  0  0  0  0  0  0  0
    1.6000    7.6940   52.6080 N   0  0  0  0  0  0  0  0  0  0  0  0
    5.8800    6.7390   58.6930 N   0  0  0  0  0  0  0  0  0  0  0  0
    3.2990    7.2660   51.0210 O   0  0  0  0  0  0  0  0  0  0  0  0
    2.7520    5.4850   52.5290 O   0  0  0  0  0  0  0  0  0  0  0  0
    7.1490    8.7230   57.9940 O   0  0  0  0  0  0  0  0  0  0  0  0
    4.9000    9.0750   58.7320 O   0  0  0  0  0  0  0  0  0  0  0  0
    2.9400    6.8810   52.3370 S   0  0  0  0  0  0  0  0  0  0  0  0
    5.8270    8.2630   58.0220 S   0  0  0  0  0  0  0  0  0  0  0  0
  1  2  2  0
  1  3  1  0
  2  4  1  0
  3  5  2  0
  4 10  2  0
  5 10  1  0
  6  8  2  0
  6 11  1  0
  7  9  1  0
  7 11  2  0
  8 12  1  0
  9 12  2  0
 10 13  1  0
 11 31  1  0
 12 32  1  0
 13 14  2  0
 14 23  1  0
 15 16  1  0
 15 17  1  0
 16 18  1  0
 17 25  1  0
 18 25  1  0
 19 21  1  0
 19 24  1  0
 20 22  1  0
 20 24  1  0
 21 26  1  0
 22 26  1  0
 23 24  1  0
 25 31  1  0
 26 32  1  0
 27 31  2  0
 28 31  2  0
 29 32  2  0
 30 32  2  0
M  END
>  <washed_aromatic_smiles>  (147) 
c1ccc(cc1)/C=C/CN2CCN(CC2)S(=O)(=O)c3ccc(cc3)S(=O)(=O)N4CCCC4

>  <name>  (147) 
neg305053

$$$$
neg254969
     RDKit          3D

 26 29  0  0  0  0  0  0  0  0999 V2000
    2.4920   -0.7790   52.3540 C   0  0  0  0  0  0  0  0  0  0  0  0
    0.7630    8.9600   57.4370 C   0  0  0  0  0  0  0  0  0  0  0  0
    5.5150   10.9310   54.4480 C   0  0  0  0  0  0  0  0  0  0  0  0
    1.2840   -0.1340   52.5890 C   0  0  0  0  0  0  0  0  0  0  0  0
    3.3390   -0.3040   51.3620 C   0  0  0  0  0  0  0  0  0  0  0  0
   -0.1590    8.5990   56.4770 C   0  0  0  0  0  0  0  0  0  0  0  0
    5.3730   10.5210   53.1200 C   0  0  0  0  0  0  0  0  0  0  0  0
    2.0880    9.2670   57.0990 C   0  0  0  0  0  0  0  0  0  0  0  0
    4.6560   10.4420   55.4280 C   0  0  0  0  0  0  0  0  0  0  0  0
    0.9190    0.9740   51.8330 C   0  0  0  0  0  0  0  0  0  0  0  0
    2.9910    0.8200   50.6360 C   0  0  0  0  0  0  0  0  0  0  0  0
    0.2640    8.4060   55.1630 C   0  0  0  0  0  0  0  0  0  0  0  0
    4.3760    9.6100   52.7690 C   0  0  0  0  0  0  0  0  0  0  0  0
    2.4810    9.1160   55.7820 C   0  0  0  0  0  0  0  0  0  0  0  0
    3.6490    9.5520   55.0550 C   0  0  0  0  0  0  0  0  0  0  0  0
    1.7900    1.4870   50.8620 C   0  0  0  0  0  0  0  0  0  0  0  0
    1.6130    8.5300   54.8840 C   0  0  0  0  0  0  0  0  0  0  0  0
    3.5380    9.1030   53.7440 C   0  0  0  0  0  0  0  0  0  0  0  0
    1.4780    2.6620   50.0750 C   0  0  0  0  0  0  0  0  0  0  0  0
    2.9500    5.3480   51.9430 C   0  0  0  0  0  0  0  0  0  0  0  0
    2.4000    8.0950   53.6960 C   0  0  0  0  0  0  0  0  0  0  0  0
    2.4300    6.6010   51.2750 C   0  0  0  0  0  0  0  0  0  0  0  0
    1.8230    3.8590   50.3690 N   0  0  0  0  0  0  0  0  0  0  0  0
    2.5720    4.0940   51.5030 N   0  0  0  0  0  0  0  0  0  0  0  0
    3.7270    5.3940   52.8730 O   0  0  0  0  0  0  0  0  0  0  0  0
    1.3290    7.6480   52.3010 S   0  0  0  0  0  0  0  0  0  0  0  0
  1  4  2  0
  1  5  1  0
  2  6  2  0
  2  8  1  0
  3  7  2  0
  3  9  1  0
  4 10  1  0
  5 11  2  0
  6 12  1  0
  7 13  1  0
  8 14  2  0
  9 15  2  0
 10 16  2  0
 11 16  1  0
 12 17  2  0
 13 18  2  0
 14 15  1  0
 14 17  1  0
 15 18  1  0
 16 19  1  0
 17 21  1  0
 18 21  1  0
 19 23  2  0
 20 22  1  0
 20 24  1  0
 20 25  2  0
 21 26  1  0
 22 26  1  0
 23 24  1  0
M  END
>  <washed_aromatic_smiles>  (148) 
c1ccc(cc1)/C=N/NC(=O)CSC2c3ccccc3-c4c2cccc4

>  <name>  (148) 
neg254969

$$$$
neg182838
     RDKit          3D

 27 29  0  0  0  0  0  0  0  0999 V2000
    4.9040    0.4350   56.9770 C   0  0  0  0  0  0  0  0  0  0  0  0
    1.5830    7.2590   51.9790 C   0  0  0  0  0  0  0  0  0  0  0  0
    0.4360    2.3970   47.0630 C   0  0  0  0  0  0  0  0  0  0  0  0
    4.7100   -0.7090   56.2160 C   0  0  0  0  0  0  0  0  0  0  0  0
    4.0800    1.5350   56.7760 C   0  0  0  0  0  0  0  0  0  0  0  0
    0.5450    6.3760   52.1330 C   0  0  0  0  0  0  0  0  0  0  0  0
    2.7470    6.8180   51.3770 C   0  0  0  0  0  0  0  0  0  0  0  0
    0.4290    1.3270   47.9320 C   0  0  0  0  0  0  0  0  0  0  0  0
    1.0280    3.5940   47.4640 C   0  0  0  0  0  0  0  0  0  0  0  0
    3.7080   -0.7330   55.2480 C   0  0  0  0  0  0  0  0  0  0  0  0
    3.0390    1.4750   55.8510 C   0  0  0  0  0  0  0  0  0  0  0  0
    0.7260    5.0570   51.7600 C   0  0  0  0  0  0  0  0  0  0  0  0
    2.9520    5.4680   51.0710 C   0  0  0  0  0  0  0  0  0  0  0  0
    0.9560    1.4970   49.1990 C   0  0  0  0  0  0  0  0  0  0  0  0
    1.6830    3.7120   48.6510 C   0  0  0  0  0  0  0  0  0  0  0  0
    2.8390    0.3260   55.0860 C   0  0  0  0  0  0  0  0  0  0  0  0
    1.9350    4.5370   51.2960 C   0  0  0  0  0  0  0  0  0  0  0  0
    1.5950    2.6880   49.5640 C   0  0  0  0  0  0  0  0  0  0  0  0
    1.6510   -0.1340   52.7510 C   0  0  0  0  0  0  0  0  0  0  0  0
    3.8680    1.1660   51.3160 C   0  0  0  0  0  0  0  0  0  0  0  0
    1.6110    0.1230   54.2100 C   0  0  0  0  0  0  0  0  0  0  0  0
    3.2550   -0.1930   51.0120 C   0  0  0  0  0  0  0  0  0  0  0  0
    2.0340    2.9960   50.9610 C   0  0  0  0  0  0  0  0  0  0  0  0
    2.7490   -0.6850   52.2610 N   0  0  0  0  0  0  0  0  0  0  0  0
    0.6840    0.1800   52.0690 O   0  0  0  0  0  0  0  0  0  0  0  0
    5.0240    1.1180   51.6920 O   0  0  0  0  0  0  0  0  0  0  0  0
    3.2970    2.3990   51.2890 O   0  0  0  0  0  0  0  0  0  0  0  0
  1  4  2  0
  1  5  1  0
  2  6  2  0
  2  7  1  0
  3  8  2  0
  3  9  1  0
  4 10  1  0
  5 11  2  0
  6 12  1  0
  7 13  2  0
  8 14  1  0
  9 15  2  0
 10 16  2  0
 11 16  1  0
 12 17  2  0
 13 17  1  0
 14 18  2  0
 15 18  1  0
 16 21  1  0
 17 23  1  0
 18 23  1  0
 19 21  1  0
 19 24  1  0
 19 25  2  0
 20 22  1  0
 20 26  2  0
 20 27  1  0
 22 24  1  0
 23 27  1  0
M  END
>  <washed_aromatic_smiles>  (149) 
c1ccc(cc1)CC(=O)NCC(=O)OC(c2ccccc2)c3ccccc3

>  <name>  (149) 
neg182838

$$$$
neg288615
     RDKit          3D

 32 34  0  0  0  0  0  0  0  0999 V2000
    1.2120    0.1150   45.8960 C   0  0  0  0  0  0  0  0  0  0  0  0
    6.6110    8.2780   57.3810 C   0  0  0  0  0  0  0  0  0  0  0  0
    0.4770    1.2210   46.2730 C   0  0  0  0  0  0  0  0  0  0  0  0
    1.5240   -0.8570   46.8420 C   0  0  0  0  0  0  0  0  0  0  0  0
    6.0200    8.7990   58.5200 C   0  0  0  0  0  0  0  0  0  0  0  0
    6.0500    8.5280   56.1210 C   0  0  0  0  0  0  0  0  0  0  0  0
    0.0850    1.3710   47.5920 C   0  0  0  0  0  0  0  0  0  0  0  0
    1.0400   -0.7500   48.1410 C   0  0  0  0  0  0  0  0  0  0  0  0
    4.8630    9.5470   58.3940 C   0  0  0  0  0  0  0  0  0  0  0  0
    4.8640    9.1940   56.0120 C   0  0  0  0  0  0  0  0  0  0  0  0
    0.3160    0.3610   48.5330 C   0  0  0  0  0  0  0  0  0  0  0  0
    4.2640    9.6830   57.1490 C   0  0  0  0  0  0  0  0  0  0  0  0
    1.0450    1.1360   50.7700 C   0  0  0  0  0  0  0  0  0  0  0  0
    1.8390    9.3510   56.6970 C   0  0  0  0  0  0  0  0  0  0  0  0
    1.0020    5.2060   50.3280 C   0  0  0  0  0  0  0  0  0  0  0  0
    3.4310    5.5090   50.5250 C   0  0  0  0  0  0  0  0  0  0  0  0
    0.7710    6.1040   51.5230 C   0  0  0  0  0  0  0  0  0  0  0  0
    3.1650    6.3960   51.7190 C   0  0  0  0  0  0  0  0  0  0  0  0
   -0.0500    0.4710   50.0110 C   0  0  0  0  0  0  0  0  0  0  0  0
    2.9680   10.3500   56.9450 C   0  0  0  0  0  0  0  0  0  0  0  0
    2.8670    3.2180   48.4670 C   0  0  0  0  0  0  0  0  0  0  0  0
    0.6610    8.1260   53.4470 C   0  0  0  0  0  0  0  0  0  0  0  0
    2.4600    4.6790   48.3850 C   0  0  0  0  0  0  0  0  0  0  0  0
    1.8410    7.1570   53.4440 C   0  0  0  0  0  0  0  0  0  0  0  0
    2.7600    2.4470   49.7970 C   0  0  0  0  0  0  0  0  0  0  0  0
    0.4110    8.4800   54.8770 C   0  0  0  0  0  0  0  0  0  0  0  0
    2.2840    5.4440   49.6200 N   0  0  0  0  0  0  0  0  0  0  0  0
    1.9280    6.1390   52.4140 N   0  0  0  0  0  0  0  0  0  0  0  0
    1.4040    2.2470   50.1570 N   0  0  0  0  0  0  0  0  0  0  0  0
    1.6790    8.9800   55.4300 N   0  0  0  0  0  0  0  0  0  0  0  0
    1.7140    0.5860   51.6430 O   0  0  0  0  0  0  0  0  0  0  0  0
    1.0110    8.9960   57.5250 O   0  0  0  0  0  0  0  0  0  0  0  0
  1  3  2  0
  1  4  1  0
  2  5  2  0
  2  6  1  0
  3  7  1  0
  4  8  2  0
  5  9  1  0
  6 10  2  0
  7 11  2  0
  8 11  1  0
  9 12  2  0
 10 12  1  0
 11 19  1  0
 12 20  1  0
 13 19  1  0
 13 29  1  0
 13 31  2  0
 14 20  1  0
 14 30  1  0
 14 32  2  0
 15 17  1  0
 15 27  1  0
 16 18  1  0
 16 27  1  0
 17 28  1  0
 18 28  1  0
 21 23  1  0
 21 25  1  0
 22 24  1  0
 22 26  1  0
 23 27  1  0
 24 28  1  0
 25 29  1  0
 26 30  1  0
M  CHG  1  27   1
M  END
>  <washed_aromatic_smiles>  (150) 
c1ccc(cc1)CC(=O)NCCCN2CCN(CC2)CCCNC(=O)Cc3ccccc3

>  <name>  (150) 
neg288615

$$$$
neg38559
     RDKit          3D

 27 29  0  0  0  0  0  0  0  0999 V2000
    1.3830    8.9850   52.7620 C   0  0  0  0  0  0  0  0  0  0  0  0
    1.1440    3.8450   47.5100 C   0  0  0  0  0  0  0  0  0  0  0  0
    2.6480    8.4650   52.8530 C   0  0  0  0  0  0  0  0  0  0  0  0
    0.3400    8.1930   52.3460 C   0  0  0  0  0  0  0  0  0  0  0  0
    0.4500    2.6430   47.3570 C   0  0  0  0  0  0  0  0  0  0  0  0
    2.2060    3.9570   48.3790 C   0  0  0  0  0  0  0  0  0  0  0  0
    2.8440    7.1540   52.4760 C   0  0  0  0  0  0  0  0  0  0  0  0
    0.5220    6.8560   52.0160 C   0  0  0  0  0  0  0  0  0  0  0  0
    0.6610    1.6180   48.2500 C   0  0  0  0  0  0  0  0  0  0  0  0
    2.4420    2.9250   49.2540 C   0  0  0  0  0  0  0  0  0  0  0  0
    1.8010    6.3200   52.0460 C   0  0  0  0  0  0  0  0  0  0  0  0
    1.5860    1.8330   49.2650 C   0  0  0  0  0  0  0  0  0  0  0  0
    2.9320    4.0420   52.4710 C   0  0  0  0  0  0  0  0  0  0  0  0
    0.4500    0.3950   50.8590 C   0  0  0  0  0  0  0  0  0  0  0  0
    2.7360    0.1720   50.4420 C   0  0  0  0  0  0  0  0  0  0  0  0
    0.6800    0.1250   52.3310 C   0  0  0  0  0  0  0  0  0  0  0  0
    3.1380   -0.2480   51.7970 C   0  0  0  0  0  0  0  0  0  0  0  0
    2.0730    4.8880   51.5410 C   0  0  0  0  0  0  0  0  0  0  0  0
    2.6970    2.0770   54.0570 C   0  0  0  0  0  0  0  0  0  0  0  0
    3.1470    0.8470   54.7780 C   0  0  0  0  0  0  0  0  0  0  0  0
    1.6270    1.0610   50.3880 N   0  0  0  0  0  0  0  0  0  0  0  0
    2.0220   -0.4520   52.6690 N   0  0  0  0  0  0  0  0  0  0  0  0
    2.8960    2.6750   52.6730 N   0  0  0  0  0  0  0  0  0  0  0  0
    3.6890    4.7230   53.1240 O   0  0  0  0  0  0  0  0  0  0  0  0
    3.4690   -1.5900   54.2520 O   0  0  0  0  0  0  0  0  0  0  0  0
    1.2730   -0.9740   54.9120 O   0  0  0  0  0  0  0  0  0  0  0  0
    2.4400   -0.6620   54.2080 S   0  0  0  0  0  0  0  0  0  0  0  0
  1  3  2  0
  1  4  1  0
  2  5  2  0
  2  6  1  0
  3  7  1  0
  4  8  2  0
  5  9  1  0
  6 10  2  0
  7 11  2  0
  8 11  1  0
  9 12  2  0
 10 12  1  0
 11 18  1  0
 12 21  1  0
 13 18  1  0
 13 23  1  0
 13 24  2  0
 14 16  1  0
 14 21  1  0
 15 17  1  0
 15 21  1  0
 16 22  1  0
 17 22  1  0
 19 20  1  0
 19 23  1  0
 20 27  1  0
 22 27  1  0
 25 27  2  0
 26 27  2  0
M  END
>  <washed_aromatic_smiles>  (151) 
c1ccc(cc1)CC(=O)NCCS(=O)(=O)N2CCN(CC2)c3ccccc3

>  <name>  (151) 
neg38559

$$$$
neg256210
     RDKit          3D

 30 33  0  0  0  0  0  0  0  0999 V2000
    6.1570   -0.3830   58.7060 C   0  0  0  0  0  0  0  0  0  0  0  0
    2.5670    3.6350   47.6050 C   0  0  0  0  0  0  0  0  0  0  0  0
    5.7900   -1.1950   57.6420 C   0  0  0  0  0  0  0  0  0  0  0  0
    5.7270    0.9350   58.7430 C   0  0  0  0  0  0  0  0  0  0  0  0
    3.7410    4.1760   48.0860 C   0  0  0  0  0  0  0  0  0  0  0  0
    1.3530    3.9360   48.1460 C   0  0  0  0  0  0  0  0  0  0  0  0
    4.9550   -0.7220   56.6380 C   0  0  0  0  0  0  0  0  0  0  0  0
    4.8940    1.4130   57.7440 C   0  0  0  0  0  0  0  0  0  0  0  0
    3.0290   -0.3560   53.7110 C   0  0  0  0  0  0  0  0  0  0  0  0
    3.6840    5.0340   49.1710 C   0  0  0  0  0  0  0  0  0  0  0  0
    1.2830    4.7880   49.2250 C   0  0  0  0  0  0  0  0  0  0  0  0
    2.6270   -0.3380   52.3720 C   0  0  0  0  0  0  0  0  0  0  0  0
    2.9130    2.0260   53.7020 C   0  0  0  0  0  0  0  0  0  0  0  0
    4.4400    0.5740   56.7100 C   0  0  0  0  0  0  0  0  0  0  0  0
    3.1310    0.8520   54.4150 C   0  0  0  0  0  0  0  0  0  0  0  0
    2.4550    5.2830   49.7670 C   0  0  0  0  0  0  0  0  0  0  0  0
    2.3100    0.8930   51.7590 C   0  0  0  0  0  0  0  0  0  0  0  0
    2.6770    2.0900   52.3600 C   0  0  0  0  0  0  0  0  0  0  0  0
    3.3740    1.0680   55.8390 C   0  0  0  0  0  0  0  0  0  0  0  0
    2.8800    4.7060   52.0430 C   0  0  0  0  0  0  0  0  0  0  0  0
    0.0560    0.5140   51.4240 C   0  0  0  0  0  0  0  0  0  0  0  0
    1.5520    0.4880   49.5250 C   0  0  0  0  0  0  0  0  0  0  0  0
   -1.0920    0.4230   50.4400 C   0  0  0  0  0  0  0  0  0  0  0  0
    0.3580    0.5870   48.5840 C   0  0  0  0  0  0  0  0  0  0  0  0
    2.4050    5.8240   51.1500 C   0  0  0  0  0  0  0  0  0  0  0  0
    1.2920    1.0050   50.8320 N   0  0  0  0  0  0  0  0  0  0  0  0
    2.5690    3.3710   51.6610 N   0  0  0  0  0  0  0  0  0  0  0  0
    2.6250    1.8650   56.3700 O   0  0  0  0  0  0  0  0  0  0  0  0
    3.5930    4.9840   52.9790 O   0  0  0  0  0  0  0  0  0  0  0  0
   -0.7480   -0.0710   49.1440 O   0  0  0  0  0  0  0  0  0  0  0  0
  1  3  2  0
  1  4  1  0
  2  5  2  0
  2  6  1  0
  3  7  1  0
  4  8  2  0
  5 10  1  0
  6 11  2  0
  7 14  2  0
  8 14  1  0
  9 12  2  0
  9 15  1  0
 10 16  2  0
 11 16  1  0
 12 17  1  0
 13 15  2  0
 13 18  1  0
 14 19  1  0
 15 19  1  0
 16 25  1  0
 17 18  2  0
 17 26  1  0
 18 27  1  0
 19 28  2  0
 20 25  1  0
 20 27  1  0
 20 29  2  0
 21 23  1  0
 21 26  1  0
 22 24  1  0
 22 26  1  0
 23 30  1  0
 24 30  1  0
M  END
>  <washed_aromatic_smiles>  (152) 
c1ccc(cc1)CC(=O)Nc2cc(ccc2N3CCOCC3)C(=O)c4ccccc4

>  <name>  (152) 
neg256210

$$$$
neg96018
     RDKit          3D

 26 28  0  0  1  0  0  0  0  0999 V2000
    2.8100    0.7600   54.8940 C   0  0  0  0  0  0  0  0  0  0  0  0
    0.3810    8.2700   53.8170 C   0  0  0  0  0  0  0  0  0  0  0  0
    2.7860    1.7330   53.8990 C   0  0  0  0  0  0  0  0  0  0  0  0
    2.6540   -0.5730   54.5230 C   0  0  0  0  0  0  0  0  0  0  0  0
    1.5060    8.4580   54.6390 C   0  0  0  0  0  0  0  0  0  0  0  0
    0.4190    7.3680   52.7350 C   0  0  0  0  0  0  0  0  0  0  0  0
    2.6600    1.4120   52.5500 C   0  0  0  0  0  0  0  0  0  0  0  0
    2.4630   -0.9180   53.1730 C   0  0  0  0  0  0  0  0  0  0  0  0
    2.6920    7.7780   54.3650 C   0  0  0  0  0  0  0  0  0  0  0  0
    3.3300    5.5850   51.5610 C   0  0  0  0  0  0  0  0  0  0  0  0
    1.5970    6.6600   52.4260 C   0  0  0  0  0  0  0  0  0  0  0  0
    2.4410    0.0800   52.1900 C   0  0  0  0  0  0  0  0  0  0  0  0
    2.0160    5.7270   51.3770 C   0  0  0  0  0  0  0  0  0  0  0  0
    2.7200    6.9070   53.2740 C   0  0  0  0  0  0  0  0  0  0  0  0
   -0.1540    0.7160   50.6920 C   0  0  0  0  0  0  0  0  0  0  0  0
    1.1460    2.3850   48.3040 C   0  0  0  0  0  0  0  0  0  0  0  0
    2.2280   -0.2860   50.7490 C   0  0  0  0  0  0  0  0  0  0  0  0
    1.2790    5.0180   50.2920 C   0  0  0  0  0  0  0  0  0  0  0  0
    2.1010    4.5870   49.0610 C   0  0  0  0  0  0  0  0  0  0  0  0
    1.1660    0.5210   49.9530 C   0  0  2  0  0  0  0  0  0  0  0  0
    3.7110    6.1240   52.7580 N   0  0  0  0  0  0  0  0  0  0  0  0
    1.3820    3.7260   48.1260 N   0  0  0  0  0  0  0  0  0  0  0  0
    1.6900    1.7930   49.4210 N   0  0  0  0  0  0  0  0  0  0  0  0
   -0.1700    1.3440   51.7710 O   0  0  0  0  0  0  0  0  0  0  0  0
    0.4830    1.7610   47.4740 O   0  0  0  0  0  0  0  0  0  0  0  0
   -1.1830    0.2780   50.1450 O   0  0  0  0  0  0  0  0  0  0  0  0
  1  3  2  0
  1  4  1  0
  2  5  2  0
  2  6  1  0
  3  7  1  0
  4  8  2  0
  5  9  1  0
  6 11  2  0
  7 12  2  0
  8 12  1  0
  9 14  2  0
 10 13  2  0
 10 21  1  0
 11 13  1  0
 11 14  1  0
 12 17  1  0
 13 18  1  0
 14 21  1  0
 15 20  1  0
 15 24  1  0
 15 26  2  0
 16 22  1  0
 16 23  1  0
 16 25  2  0
 20 17  1  1
 18 19  1  0
 19 22  1  0
 20 23  1  0
M  CHG  1  24  -1
M  END
>  <washed_aromatic_smiles>  (153) 
c1ccc(cc1)C[C@@H](C(=O)O)NC(=O)NCCc2c[nH]c3c2cccc3

>  <name>  (153) 
neg96018

$$$$
neg68090
     RDKit          3D

 27 29  0  0  0  0  0  0  0  0999 V2000
    1.0150    0.1640   49.6870 C   0  0  0  0  0  0  0  0  0  0  0  0
    5.6860   12.6300   58.6730 C   0  0  0  0  0  0  0  0  0  0  0  0
    1.9520    0.6830   50.5960 C   0  0  0  0  0  0  0  0  0  0  0  0
    0.6180    0.9280   48.5770 C   0  0  0  0  0  0  0  0  0  0  0  0
    5.7870   13.4940   57.5890 C   0  0  0  0  0  0  0  0  0  0  0  0
    5.4010   11.2880   58.4610 C   0  0  0  0  0  0  0  0  0  0  0  0
    2.4960    1.9630   50.3920 C   0  0  0  0  0  0  0  0  0  0  0  0
    1.1520    2.2130   48.3810 C   0  0  0  0  0  0  0  0  0  0  0  0
    5.6210   13.0140   56.2920 C   0  0  0  0  0  0  0  0  0  0  0  0
    5.2670   10.8040   57.1650 C   0  0  0  0  0  0  0  0  0  0  0  0
    2.1000    2.7390   49.2830 C   0  0  0  0  0  0  0  0  0  0  0  0
    5.3860   11.6610   56.0650 C   0  0  0  0  0  0  0  0  0  0  0  0
    1.2150    7.7250   53.3750 C   0  0  0  0  0  0  0  0  0  0  0  0
    3.2330    5.2970   51.3150 C   0  0  0  0  0  0  0  0  0  0  0  0
    0.9610    5.1600   50.5990 C   0  0  0  0  0  0  0  0  0  0  0  0
    2.9380    6.5270   52.1560 C   0  0  0  0  0  0  0  0  0  0  0  0
    0.5270    6.1980   51.6500 C   0  0  0  0  0  0  0  0  0  0  0  0
    2.3830    5.2360   50.0770 C   0  0  0  0  0  0  0  0  0  0  0  0
    2.6760    4.1320   49.0400 C   0  0  0  0  0  0  0  0  0  0  0  0
    2.2620    8.3020   54.3180 C   0  0  0  0  0  0  0  0  0  0  0  0
    3.2470    9.2580   53.6430 C   0  0  0  0  0  0  0  0  0  0  0  0
    1.5510    6.7090   52.5520 N   0  0  0  0  0  0  0  0  0  0  0  0
    4.0900    9.7960   54.6700 N   0  0  0  0  0  0  0  0  0  0  0  0
    0.0860    8.2070   53.4190 O   0  0  0  0  0  0  0  0  0  0  0  0
    4.5270   12.0600   53.6150 O   0  0  0  0  0  0  0  0  0  0  0  0
    6.3620   10.5140   53.9010 O   0  0  0  0  0  0  0  0  0  0  0  0
    5.1370   11.0380   54.3980 S   0  0  0  0  0  0  0  0  0  0  0  0
  1  3  2  0
  1  4  1  0
  2  5  2  0
  2  6  1  0
  3  7  1  0
  4  8  2  0
  5  9  1  0
  6 10  2  0
  7 11  2  0
  8 11  1  0
  9 12  2  0
 10 12  1  0
 11 19  1  0
 12 27  1  0
 13 20  1  0
 13 22  1  0
 13 24  2  0
 14 16  1  0
 14 18  1  0
 15 17  1  0
 15 18  1  0
 16 22  1  0
 17 22  1  0
 18 19  1  0
 20 21  1  0
 21 23  1  0
 23 27  1  0
 25 27  2  0
 26 27  2  0
M  END
>  <washed_aromatic_smiles>  (154) 
c1ccc(cc1)CC2CCN(CC2)C(=O)CCNS(=O)(=O)c3ccccc3

>  <name>  (154) 
neg68090

$$$$
neg199939
     RDKit          3D

 27 29  0  0  0  0  0  0  0  0999 V2000
    0.3600    0.9580   48.3470 C   0  0  0  0  0  0  0  0  0  0  0  0
    5.9130   13.7550   57.8930 C   0  0  0  0  0  0  0  0  0  0  0  0
    0.6180    2.1500   47.6480 C   0  0  0  0  0  0  0  0  0  0  0  0
    0.7720    0.8250   49.6830 C   0  0  0  0  0  0  0  0  0  0  0  0
    6.0530   12.9450   59.0110 C   0  0  0  0  0  0  0  0  0  0  0  0
    5.3310   13.2470   56.7350 C   0  0  0  0  0  0  0  0  0  0  0  0
    1.3100    3.2030   48.2750 C   0  0  0  0  0  0  0  0  0  0  0  0
    1.4640    1.8760   50.3100 C   0  0  0  0  0  0  0  0  0  0  0  0
    5.6150   11.6270   58.9680 C   0  0  0  0  0  0  0  0  0  0  0  0
    4.8900   11.9300   56.6980 C   0  0  0  0  0  0  0  0  0  0  0  0
    1.7350    3.0700   49.6110 C   0  0  0  0  0  0  0  0  0  0  0  0
    5.0350   11.1090   57.8150 C   0  0  0  0  0  0  0  0  0  0  0  0
    3.5290    9.4560   53.8630 C   0  0  0  0  0  0  0  0  0  0  0  0
    5.2230    8.8800   55.5220 C   0  0  0  0  0  0  0  0  0  0  0  0
    1.4140    6.1950   50.9740 C   0  0  0  0  0  0  0  0  0  0  0  0
    3.3130    5.4260   52.3120 C   0  0  0  0  0  0  0  0  0  0  0  0
    1.0880    7.1490   52.1270 C   0  0  0  0  0  0  0  0  0  0  0  0
    3.1380    6.6760   53.2010 C   0  0  0  0  0  0  0  0  0  0  0  0
    2.1550    4.9750   51.4040 C   0  0  0  0  0  0  0  0  0  0  0  0
    2.6570    4.1010   50.2360 C   0  0  0  0  0  0  0  0  0  0  0  0
    4.6080    9.6570   57.7870 C   0  0  0  0  0  0  0  0  0  0  0  0
    2.1970    8.9300   53.3690 C   0  0  0  0  0  0  0  0  0  0  0  0
    2.3520    7.7200   52.5610 N   0  0  0  0  0  0  0  0  0  0  0  0
    3.9080    9.0050   55.1060 N   0  0  0  0  0  0  0  0  0  0  0  0
    5.4260    8.8620   56.8740 N   0  0  0  0  0  0  0  0  0  0  0  0
    4.2540   10.1890   53.2180 O   0  0  0  0  0  0  0  0  0  0  0  0
    6.1530    8.7600   54.7300 O   0  0  0  0  0  0  0  0  0  0  0  0
  1  3  2  0
  1  4  1  0
  2  5  2  0
  2  6  1  0
  3  7  1  0
  4  8  2  0
  5  9  1  0
  6 10  2  0
  7 11  2  0
  8 11  1  0
  9 12  2  0
 10 12  1  0
 11 20  1  0
 12 21  1  0
 13 22  1  0
 13 24  1  0
 13 26  2  0
 14 24  1  0
 14 25  1  0
 14 27  2  0
 15 17  1  0
 15 19  1  0
 16 18  1  0
 16 19  1  0
 17 23  1  0
 18 23  1  0
 19 20  1  0
 21 25  1  0
 22 23  1  0
M  END
>  <washed_aromatic_smiles>  (155) 
c1ccc(cc1)CC2CCN(CC2)CC(=O)NC(=O)NCc3ccccc3

>  <name>  (155) 
neg199939

$$$$
neg88949
     RDKit          3D

 27 29  0  0  0  0  0  0  0  0999 V2000
    0.5230   -0.4340   48.7200 C   0  0  0  0  0  0  0  0  0  0  0  0
    5.7870   12.5900   58.9140 C   0  0  0  0  0  0  0  0  0  0  0  0
    0.3500    0.7390   47.9680 C   0  0  0  0  0  0  0  0  0  0  0  0
    1.2430   -0.4140   49.9230 C   0  0  0  0  0  0  0  0  0  0  0  0
    5.8470   13.4150   57.7980 C   0  0  0  0  0  0  0  0  0  0  0  0
    5.4870   11.2410   58.7600 C   0  0  0  0  0  0  0  0  0  0  0  0
    0.8730    1.9520   48.4410 C   0  0  0  0  0  0  0  0  0  0  0  0
    1.7500    0.7960   50.4040 C   0  0  0  0  0  0  0  0  0  0  0  0
    3.0450    8.1790   51.9280 C   0  0  0  0  0  0  0  0  0  0  0  0
    1.4990    7.3990   53.5900 C   0  0  0  0  0  0  0  0  0  0  0  0
    3.5710    9.0880   52.8080 C   0  0  0  0  0  0  0  0  0  0  0  0
    2.0080    8.3310   54.4820 C   0  0  0  0  0  0  0  0  0  0  0  0
    5.6110   12.8900   56.5300 C   0  0  0  0  0  0  0  0  0  0  0  0
    5.2620   10.7160   57.4960 C   0  0  0  0  0  0  0  0  0  0  0  0
    1.5550    1.9810   49.6750 C   0  0  0  0  0  0  0  0  0  0  0  0
    2.0660    7.2740   52.3210 C   0  0  0  0  0  0  0  0  0  0  0  0
    3.1270    9.1370   54.1490 C   0  0  0  0  0  0  0  0  0  0  0  0
    5.3310   11.5340   56.3700 C   0  0  0  0  0  0  0  0  0  0  0  0
    2.3840    5.6820   50.4030 C   0  0  0  0  0  0  0  0  0  0  0  0
    2.1110    3.2470   50.2730 C   0  0  0  0  0  0  0  0  0  0  0  0
    1.7440    4.5780   49.6190 C   0  0  0  0  0  0  0  0  0  0  0  0
    1.6380    6.2370   51.4260 N   0  0  0  0  0  0  0  0  0  0  0  0
    3.7190    9.8910   55.0720 N   0  0  0  0  0  0  0  0  0  0  0  0
    3.5420    5.9790   50.1800 O   0  0  0  0  0  0  0  0  0  0  0  0
    6.0870   10.0590   54.3260 O   0  0  0  0  0  0  0  0  0  0  0  0
    4.5940   11.9400   53.9010 O   0  0  0  0  0  0  0  0  0  0  0  0
    4.9740   10.8510   54.7600 S   0  0  2  0  0  0  0  0  0  0  0  0
  1  3  2  0
  1  4  1  0
  2  5  2  0
  2  6  1  0
  3  7  1  0
  4  8  2  0
  5 13  1  0
  6 14  2  0
  7 15  2  0
  8 15  1  0
  9 11  2  0
  9 16  1  0
 10 12  1  0
 10 16  2  0
 11 17  1  0
 12 17  2  0
 13 18  2  0
 14 18  1  0
 15 20  1  0
 16 22  1  0
 17 23  1  0
 18 27  1  0
 19 21  1  0
 19 22  1  0
 19 24  2  0
 20 21  1  0
 23 27  2  0
 25 27  2  0
 27 26  1  6
M  CHG  1  26  -1
M  END
>  <washed_aromatic_smiles>  (156) 
c1ccc(cc1)CCC(=O)Nc2ccc(cc2)NS(=O)(=O)c3ccccc3

>  <name>  (156) 
neg88949

$$$$
neg5403
     RDKit          3D

 26 27  0  0  0  0  0  0  0  0999 V2000
    5.3920    8.6140   59.0210 C   0  0  0  0  0  0  0  0  0  0  0  0
    0.7590   -0.4640   48.4130 C   0  0  0  0  0  0  0  0  0  0  0  0
    5.3160    9.9380   58.6000 C   0  0  0  0  0  0  0  0  0  0  0  0
    5.0330    7.5880   58.1540 C   0  0  0  0  0  0  0  0  0  0  0  0
    0.7880    0.2240   47.1890 C   0  0  0  0  0  0  0  0  0  0  0  0
    0.7840    0.2410   49.6250 C   0  0  0  0  0  0  0  0  0  0  0  0
    4.8990   10.2380   57.3080 C   0  0  0  0  0  0  0  0  0  0  0  0
    4.6000    7.8860   56.8680 C   0  0  0  0  0  0  0  0  0  0  0  0
    0.7880    1.6160   47.1660 C   0  0  0  0  0  0  0  0  0  0  0  0
    0.9020    1.6370   49.5990 C   0  0  0  0  0  0  0  0  0  0  0  0
    4.5390    9.2140   56.4230 C   0  0  0  0  0  0  0  0  0  0  0  0
    0.9070    2.3230   48.3670 C   0  0  0  0  0  0  0  0  0  0  0  0
    4.1190    9.5300   55.0610 C   0  0  0  0  0  0  0  0  0  0  0  0
    2.9300    6.2050   50.9340 C   0  0  0  0  0  0  0  0  0  0  0  0
    1.2920    8.2500   52.8920 C   0  0  0  0  0  0  0  0  0  0  0  0
    1.3680    3.7530   48.3140 C   0  0  0  0  0  0  0  0  0  0  0  0
    2.4160    6.1110   52.3440 C   0  0  0  0  0  0  0  0  0  0  0  0
    2.6190    8.9510   53.1360 C   0  0  0  0  0  0  0  0  0  0  0  0
    2.8960    3.7540   48.2880 C   0  0  0  0  0  0  0  0  0  0  0  0
    3.5000    4.9940   48.9100 C   0  0  0  0  0  0  0  0  0  0  0  0
    3.1100    8.7810   54.5100 N   0  0  0  0  0  0  0  0  0  0  0  0
    3.1080    5.0520   50.3000 N   0  0  0  0  0  0  0  0  0  0  0  0
    4.6240   10.4360   54.4030 O   0  0  0  0  0  0  0  0  0  0  0  0
    3.2220    7.2660   50.4080 O   0  0  0  0  0  0  0  0  0  0  0  0
    0.2150    8.8090   53.0820 O   0  0  0  0  0  0  0  0  0  0  0  0
    1.2520    6.9380   52.5900 O   0  0  0  0  0  0  0  0  0  0  0  0
  1  3  2  0
  1  4  1  0
  2  5  2  0
  2  6  1  0
  3  7  1  0
  4  8  2  0
  5  9  1  0
  6 10  2  0
  7 11  2  0
  8 11  1  0
  9 12  2  0
 10 12  1  0
 11 13  1  0
 12 16  1  0
 13 21  1  0
 13 23  2  0
 14 17  1  0
 14 22  1  0
 14 24  2  0
 15 18  1  0
 15 25  2  0
 15 26  1  0
 16 19  1  0
 17 26  1  0
 18 21  1  0
 19 20  1  0
 20 22  1  0
M  END
>  <washed_aromatic_smiles>  (157) 
c1ccc(cc1)CCCNC(=O)COC(=O)CNC(=O)c2ccccc2

>  <name>  (157) 
neg5403

$$$$
neg201891
     RDKit          3D

 27 29  0  0  0  0  0  0  0  0999 V2000
    1.5740   -1.0900   53.3210 C   0  0  0  0  0  0  0  0  0  0  0  0
    2.0230    8.7810   55.3150 C   0  0  0  0  0  0  0  0  0  0  0  0
    2.2470   -0.2630   54.2100 C   0  0  0  0  0  0  0  0  0  0  0  0
    2.2010   -1.4550   52.1140 C   0  0  0  0  0  0  0  0  0  0  0  0
    3.2360    8.2950   54.8070 C   0  0  0  0  0  0  0  0  0  0  0  0
    0.8140    8.4610   54.6670 C   0  0  0  0  0  0  0  0  0  0  0  0
    0.5770    0.9740   45.6900 C   0  0  0  0  0  0  0  0  0  0  0  0
    3.1730    0.6040   53.6860 C   0  0  0  0  0  0  0  0  0  0  0  0
    3.1530   -0.6320   51.5810 C   0  0  0  0  0  0  0  0  0  0  0  0
    3.2340    7.4850   53.6620 C   0  0  0  0  0  0  0  0  0  0  0  0
    0.8200    7.6950   53.4950 C   0  0  0  0  0  0  0  0  0  0  0  0
    0.3330    1.8800   46.7130 C   0  0  0  0  0  0  0  0  0  0  0  0
    1.1360   -0.1090   46.2720 C   0  0  0  0  0  0  0  0  0  0  0  0
    3.4680    0.4890   52.3230 C   0  0  0  0  0  0  0  0  0  0  0  0
    2.0250    7.1800   53.0000 C   0  0  0  0  0  0  0  0  0  0  0  0
    0.8130    1.3240   47.8530 C   0  0  0  0  0  0  0  0  0  0  0  0
    1.1420    1.9520   49.0970 C   0  0  0  0  0  0  0  0  0  0  0  0
    2.6370    4.0150   49.6580 C   0  0  0  0  0  0  0  0  0  0  0  0
    3.8200    1.6670   51.5660 C   0  0  0  0  0  0  0  0  0  0  0  0
    1.9740    6.2740   51.7860 C   0  0  0  0  0  0  0  0  0  0  0  0
    2.8040    2.7620   51.8900 C   0  0  0  0  0  0  0  0  0  0  0  0
    3.0670    5.2090   51.7690 C   0  0  0  0  0  0  0  0  0  0  0  0
    2.0040    3.0180   48.9000 N   0  0  0  0  0  0  0  0  0  0  0  0
    2.6970    3.9700   51.0590 N   0  0  0  0  0  0  0  0  0  0  0  0
    0.7340    1.5620   50.1770 O   0  0  0  0  0  0  0  0  0  0  0  0
    1.2180    0.0630   47.5980 O   0  0  0  0  0  0  0  0  0  0  0  0
    3.3320    5.2650   48.7760 S   0  0  0  0  0  0  0  0  0  0  0  0
  1  3  2  0
  1  4  1  0
  2  5  2  0
  2  6  1  0
  3  8  1  0
  4  9  2  0
  5 10  1  0
  6 11  2  0
  7 12  1  0
  7 13  2  0
  8 14  2  0
  9 14  1  0
 10 15  2  0
 11 15  1  0
 12 16  2  0
 13 26  1  0
 14 19  1  0
 15 20  1  0
 16 17  1  0
 16 26  1  0
 17 23  1  0
 17 25  2  0
 18 23  1  0
 18 24  1  0
 18 27  2  0
 19 21  1  0
 20 22  1  0
 21 24  1  0
 22 24  1  0
M  END
>  <washed_aromatic_smiles>  (158) 
c1ccc(cc1)CCN(CCc2ccccc2)C(=S)NC(=O)c3ccco3

>  <name>  (158) 
neg201891

$$$$
neg28855
     RDKit          3D

 28 30  0  0  0  0  0  0  0  0999 V2000
    4.9420   11.5760   58.3750 C   0  0  0  0  0  0  0  0  0  0  0  0
    5.7300   12.5740   57.7850 C   0  0  0  0  0  0  0  0  0  0  0  0
    4.1810   10.7180   57.5680 C   0  0  0  0  0  0  0  0  0  0  0  0
    5.8160   12.6560   56.3870 C   0  0  0  0  0  0  0  0  0  0  0  0
    4.2310   10.8400   56.1710 C   0  0  0  0  0  0  0  0  0  0  0  0
    3.3850    5.8150   50.0430 C   0  0  0  0  0  0  0  0  0  0  0  0
    1.4590    5.9020   51.4900 C   0  0  0  0  0  0  0  0  0  0  0  0
    3.0910    4.4920   49.7240 C   0  0  0  0  0  0  0  0  0  0  0  0
    1.1880    4.5930   51.1610 C   0  0  0  0  0  0  0  0  0  0  0  0
    5.0770   11.7900   55.5650 C   0  0  0  0  0  0  0  0  0  0  0  0
    2.6160    6.4780   51.0000 C   0  0  0  0  0  0  0  0  0  0  0  0
    2.0430    3.8320   50.3680 C   0  0  0  0  0  0  0  0  0  0  0  0
    3.9820    8.7390   53.4830 C   0  0  0  0  0  0  0  0  0  0  0  0
    0.7650    2.0460   47.9080 C   0  0  0  0  0  0  0  0  0  0  0  0
    0.0430    0.3330   49.5040 C   0  0  0  0  0  0  0  0  0  0  0  0
    0.5100    0.8990   46.9200 C   0  0  0  0  0  0  0  0  0  0  0  0
    0.6930   -0.7420   48.6340 C   0  0  0  0  0  0  0  0  0  0  0  0
    5.2130   11.9130   54.0520 C   0  0  0  0  0  0  0  0  0  0  0  0
    2.7530    8.1310   52.8520 C   0  0  0  0  0  0  0  0  0  0  0  0
    5.5890   10.6300   53.3020 C   0  0  0  0  0  0  0  0  0  0  0  0
    0.6510    1.6570   49.3300 N   0  0  0  0  0  0  0  0  0  0  0  0
    4.3960    9.8860   52.9320 N   0  0  0  0  0  0  0  0  0  0  0  0
    4.5770    8.1910   54.4110 O   0  0  0  0  0  0  0  0  0  0  0  0
    1.5450    1.6040   51.6720 O   0  0  0  0  0  0  0  0  0  0  0  0
    3.0840    1.4770   49.8420 O   0  0  0  0  0  0  0  0  0  0  0  0
    1.1620   -0.2750   47.3680 O   0  0  0  0  0  0  0  0  0  0  0  0
    3.0080    7.6920   51.4880 O   0  0  0  0  0  0  0  0  0  0  0  0
    1.8900    2.0290   50.3590 S   0  0  0  0  0  0  0  0  0  0  0  0
  1  2  2  0
  1  3  1  0
  2  4  1  0
  3  5  2  0
  4 10  2  0
  5 10  1  0
  6  8  2  0
  6 11  1  0
  7  9  1  0
  7 11  2  0
  8 12  1  0
  9 12  2  0
 10 18  1  0
 11 27  1  0
 12 28  1  0
 13 19  1  0
 13 22  1  0
 13 23  2  0
 14 16  1  0
 14 21  1  0
 15 17  1  0
 15 21  1  0
 16 26  1  0
 17 26  1  0
 18 20  1  0
 19 27  1  0
 20 22  1  0
 21 28  1  0
 24 28  2  0
 25 28  2  0
M  END
>  <washed_aromatic_smiles>  (159) 
c1ccc(cc1)CCNC(=O)COc2ccc(cc2)S(=O)(=O)N3CCOCC3

>  <name>  (159) 
neg28855

$$$$
neg247450
     RDKit          3D

 27 29  0  0  0  0  0  0  0  0999 V2000
    3.7170    0.7310   56.1860 C   0  0  0  0  0  0  0  0  0  0  0  0
    5.2280   11.9330   57.2300 C   0  0  0  0  0  0  0  0  0  0  0  0
    3.0420    1.6870   55.4270 C   0  0  0  0  0  0  0  0  0  0  0  0
    3.8400   -0.5700   55.6840 C   0  0  0  0  0  0  0  0  0  0  0  0
    5.4420   11.9420   55.8530 C   0  0  0  0  0  0  0  0  0  0  0  0
    4.4240   10.9520   57.8070 C   0  0  0  0  0  0  0  0  0  0  0  0
    1.4970    4.2080   50.9220 C   0  0  0  0  0  0  0  0  0  0  0  0
    3.2750    4.5640   49.3530 C   0  0  0  0  0  0  0  0  0  0  0  0
    2.6430    1.3800   54.1140 C   0  0  0  0  0  0  0  0  0  0  0  0
    3.2600   -0.9060   54.4440 C   0  0  0  0  0  0  0  0  0  0  0  0
    4.8500   10.9740   55.0460 C   0  0  0  0  0  0  0  0  0  0  0  0
    3.8190    9.9870   57.0080 C   0  0  0  0  0  0  0  0  0  0  0  0
    1.6290    5.4880   51.4190 C   0  0  0  0  0  0  0  0  0  0  0  0
    3.4160    5.8610   49.8320 C   0  0  0  0  0  0  0  0  0  0  0  0
    2.3700    3.6960   49.9710 C   0  0  0  0  0  0  0  0  0  0  0  0
    2.6780    0.0700   53.6330 C   0  0  0  0  0  0  0  0  0  0  0  0
    4.0290   10.0040   55.6310 C   0  0  0  0  0  0  0  0  0  0  0  0
    2.6460    6.2900   50.9180 C   0  0  0  0  0  0  0  0  0  0  0  0
    2.3480    2.2590   49.7760 C   0  0  0  0  0  0  0  0  0  0  0  0
    2.0490   -0.3060   52.2970 C   0  0  0  0  0  0  0  0  0  0  0  0
    2.7880    0.0900   51.0160 C   0  0  0  0  0  0  0  0  0  0  0  0
    3.4480    8.9480   53.4340 C   0  0  0  0  0  0  0  0  0  0  0  0
    2.6440    7.7610   52.9080 C   0  0  0  0  0  0  0  0  0  0  0  0
    2.8900    1.5320   50.8150 N   0  0  0  0  0  0  0  0  0  0  0  0
    1.8300    1.6970   48.8170 O   0  0  0  0  0  0  0  0  0  0  0  0
    3.3790    9.0460   54.8790 O   0  0  0  0  0  0  0  0  0  0  0  0
    2.9080    7.5010   51.5050 O   0  0  0  0  0  0  0  0  0  0  0  0
  1  3  2  0
  1  4  1  0
  2  5  2  0
  2  6  1  0
  3  9  1  0
  4 10  2  0
  5 11  1  0
  6 12  2  0
  7 13  2  0
  7 15  1  0
  8 14  1  0
  8 15  2  0
  9 16  2  0
 10 16  1  0
 11 17  2  0
 12 17  1  0
 13 18  1  0
 14 18  2  0
 15 19  1  0
 16 20  1  0
 17 26  1  0
 18 27  1  0
 19 24  1  0
 19 25  2  0
 20 21  1  0
 21 24  1  0
 22 23  1  0
 22 26  1  0
 23 27  1  0
M  END
>  <washed_aromatic_smiles>  (160) 
c1ccc(cc1)CCNC(=O)c2ccc(cc2)OCCOc3ccccc3

>  <name>  (160) 
neg247450

$$$$
neg255634
     RDKit          3D

 26 28  0  0  0  0  0  0  0  0999 V2000
   -0.4840    0.4310   47.5300 C   0  0  0  0  0  0  0  0  0  0  0  0
    4.1570    1.2700   56.9190 C   0  0  0  0  0  0  0  0  0  0  0  0
   -1.1870   -0.1300   48.5840 C   0  0  0  0  0  0  0  0  0  0  0  0
    0.7380    1.0150   47.7290 C   0  0  0  0  0  0  0  0  0  0  0  0
    4.5440   -0.0010   56.5230 C   0  0  0  0  0  0  0  0  0  0  0  0
    3.1630    1.9190   56.2030 C   0  0  0  0  0  0  0  0  0  0  0  0
   -0.7660    0.1520   49.8740 C   0  0  0  0  0  0  0  0  0  0  0  0
    1.2450    1.0880   49.0080 C   0  0  0  0  0  0  0  0  0  0  0  0
    3.9550   -0.5820   55.4020 C   0  0  0  0  0  0  0  0  0  0  0  0
    2.5530    1.2970   55.1300 C   0  0  0  0  0  0  0  0  0  0  0  0
    0.4620    0.7300   50.0990 C   0  0  0  0  0  0  0  0  0  0  0  0
    2.9650    0.0690   54.6720 C   0  0  0  0  0  0  0  0  0  0  0  0
    3.0100    2.8380   51.8350 C   0  0  0  0  0  0  0  0  0  0  0  0
    2.6690    3.8700   49.5500 C   0  0  0  0  0  0  0  0  0  0  0  0
    2.8060    5.2380   51.6750 C   0  0  0  0  0  0  0  0  0  0  0  0
    3.0730    5.1370   48.7790 C   0  0  0  0  0  0  0  0  0  0  0  0
    2.7460    6.4070   50.7240 C   0  0  0  0  0  0  0  0  0  0  0  0
    0.7900    1.0680   51.5210 C   0  0  0  0  0  0  0  0  0  0  0  0
    3.2300    1.3680   51.5400 C   0  0  0  0  0  0  0  0  0  0  0  0
    2.7980    3.9000   51.0170 N   0  0  0  0  0  0  0  0  0  0  0  0
    2.0790    0.5950   52.0240 N   0  0  0  0  0  0  0  0  0  0  0  0
    3.0000    3.0770   53.0150 O   0  0  0  0  0  0  0  0  0  0  0  0
    2.9610   -1.6600   52.7010 O   0  0  0  0  0  0  0  0  0  0  0  0
    0.8560   -0.9460   53.6070 O   0  0  0  0  0  0  0  0  0  0  0  0
    3.5750    6.1820   49.5950 O   0  0  0  0  0  0  0  0  0  0  0  0
    2.1660   -0.6020   53.1990 S   0  0  0  0  0  0  0  0  0  0  0  0
  1  3  2  0
  1  4  1  0
  2  5  2  0
  2  6  1  0
  3  7  1  0
  4  8  2  0
  5  9  1  0
  6 10  2  0
  7 11  2  0
  8 11  1  0
  9 12  2  0
 10 12  1  0
 11 18  1  0
 12 26  1  0
 13 19  1  0
 13 20  1  0
 13 22  2  0
 14 16  1  0
 14 20  1  0
 15 17  1  0
 15 20  1  0
 16 25  1  0
 17 25  1  0
 18 21  1  0
 19 21  1  0
 21 26  1  0
 23 26  2  0
 24 26  2  0
M  END
>  <washed_aromatic_smiles>  (161) 
c1ccc(cc1)CN(CC(=O)N2CCOCC2)S(=O)(=O)c3ccccc3

>  <name>  (161) 
neg255634

$$$$
neg32624
     RDKit          3D

 31 33  0  0  0  0  0  0  0  0999 V2000
    0.8250    1.8440   46.8820 C   0  0  0  0  0  0  0  0  0  0  0  0
    1.7780   -0.7910   54.8050 C   0  0  0  0  0  0  0  0  0  0  0  0
    4.0590    7.7330   56.3900 C   0  0  0  0  0  0  0  0  0  0  0  0
    1.6100    2.9100   47.3210 C   0  0  0  0  0  0  0  0  0  0  0  0
    0.2910    0.9670   47.8130 C   0  0  0  0  0  0  0  0  0  0  0  0
    2.8930   -0.0580   55.0770 C   0  0  0  0  0  0  0  0  0  0  0  0
    1.1710   -0.7060   53.5720 C   0  0  0  0  0  0  0  0  0  0  0  0
    4.2980    9.0890   56.5900 C   0  0  0  0  0  0  0  0  0  0  0  0
    3.5450    7.2850   55.1750 C   0  0  0  0  0  0  0  0  0  0  0  0
    1.8350    3.1400   48.6490 C   0  0  0  0  0  0  0  0  0  0  0  0
    0.5120    1.1930   49.1640 C   0  0  0  0  0  0  0  0  0  0  0  0
    3.3310    0.8080   54.1200 C   0  0  0  0  0  0  0  0  0  0  0  0
    1.6870    0.0940   52.5710 C   0  0  0  0  0  0  0  0  0  0  0  0
    4.0920    9.9720   55.5480 C   0  0  0  0  0  0  0  0  0  0  0  0
    3.2570    8.1500   54.1280 C   0  0  0  0  0  0  0  0  0  0  0  0
    1.2650    2.2960   49.5670 C   0  0  0  0  0  0  0  0  0  0  0  0
    2.7590    0.9250   52.8640 C   0  0  0  0  0  0  0  0  0  0  0  0
    3.6370    9.4870   54.3140 C   0  0  0  0  0  0  0  0  0  0  0  0
    2.7000    7.6340   52.8790 C   0  0  0  0  0  0  0  0  0  0  0  0
    2.6780    4.4360   52.0750 C   0  0  0  0  0  0  0  0  0  0  0  0
    1.3080    2.7480   50.9710 C   0  0  0  0  0  0  0  0  0  0  0  0
    3.3560    1.9150   51.8790 C   0  0  0  0  0  0  0  0  0  0  0  0
    1.7010    5.6070   51.8370 C   0  0  0  0  0  0  0  0  0  0  0  0
    5.0730   10.2450   52.7180 C   0  0  0  0  0  0  0  0  0  0  0  0
    5.8270   11.5120   52.9990 C   0  0  0  0  0  0  0  0  0  0  0  0
    3.7310   10.3020   53.2210 N   0  0  0  0  0  0  0  0  0  0  0  0
    2.5510    3.1480   51.5750 N   0  0  0  0  0  0  0  0  0  0  0  0
    3.0140    8.0260   51.7740 O   0  0  0  0  0  0  0  0  0  0  0  0
    3.5660    4.7310   52.8530 O   0  0  0  0  0  0  0  0  0  0  0  0
    6.9820   11.2960   52.2660 O   0  0  0  0  0  0  0  0  0  0  0  0
    1.8030    6.6200   52.9200 O   0  0  0  0  0  0  0  0  0  0  0  0
  1  4  2  0
  1  5  1  0
  2  6  2  0
  2  7  1  0
  3  8  2  0
  3  9  1  0
  4 10  1  0
  5 11  2  0
  6 12  1  0
  7 13  2  0
  8 14  1  0
  9 15  2  0
 10 16  2  0
 11 16  1  0
 12 17  2  0
 13 17  1  0
 14 18  2  0
 15 18  1  0
 15 19  1  0
 16 21  1  0
 17 22  1  0
 18 26  1  0
 19 28  2  0
 19 31  1  0
 20 23  1  0
 20 27  1  0
 20 29  2  0
 21 27  1  0
 22 27  1  0
 23 31  1  0
 24 25  1  0
 24 26  1  0
 25 30  1  0
M  END
>  <washed_aromatic_smiles>  (162) 
c1ccc(cc1)CN(Cc2ccccc2)C(=O)COC(=O)c3ccccc3NCCO

>  <name>  (162) 
neg32624

$$$$
neg98095
     RDKit          3D

 27 29  0  0  0  0  0  0  0  0999 V2000
    5.8280   12.6490   52.9220 C   0  0  0  0  0  0  0  0  0  0  0  0
    0.1340    7.2330   52.3100 C   0  0  0  0  0  0  0  0  0  0  0  0
    5.8030   12.7200   54.2990 C   0  0  0  0  0  0  0  0  0  0  0  0
    6.0360   11.4140   52.3090 C   0  0  0  0  0  0  0  0  0  0  0  0
    1.1600    6.3250   52.0990 C   0  0  0  0  0  0  0  0  0  0  0  0
    0.3470    8.3610   53.0970 C   0  0  0  0  0  0  0  0  0  0  0  0
    5.7580   11.1170   59.1700 C   0  0  0  0  0  0  0  0  0  0  0  0
    4.7740   12.5590   57.5640 C   0  0  0  0  0  0  0  0  0  0  0  0
    5.9230   11.5490   55.0170 C   0  0  0  0  0  0  0  0  0  0  0  0
    5.9470   10.2580   53.0430 C   0  0  0  0  0  0  0  0  0  0  0  0
    2.3790    6.5110   52.7350 C   0  0  0  0  0  0  0  0  0  0  0  0
    1.5610    8.5360   53.7390 C   0  0  0  0  0  0  0  0  0  0  0  0
    5.0580   10.0420   58.6660 C   0  0  0  0  0  0  0  0  0  0  0  0
    3.9880   11.5020   57.1110 C   0  0  0  0  0  0  0  0  0  0  0  0
    5.6770   12.3880   58.6080 C   0  0  0  0  0  0  0  0  0  0  0  0
    5.8330   10.3150   54.4040 C   0  0  0  0  0  0  0  0  0  0  0  0
    2.5660    7.5930   53.5930 C   0  0  0  0  0  0  0  0  0  0  0  0
    4.2020   10.2180   57.5930 C   0  0  0  0  0  0  0  0  0  0  0  0
    6.5520   13.4790   59.0460 C   0  0  0  0  0  0  0  0  0  0  0  0
    5.6120    9.0460   55.1710 C   0  0  0  0  0  0  0  0  0  0  0  0
    3.8420    7.6350   54.3800 C   0  0  0  0  0  0  0  0  0  0  0  0
    4.1760    8.7760   55.2540 N   0  0  0  0  0  0  0  0  0  0  0  0
    7.3850   13.2810   59.9720 O   0  0  0  0  0  0  0  0  0  0  0  0
    4.0490    7.6390   57.4540 O   0  0  0  0  0  0  0  0  0  0  0  0
    2.1220    8.9350   56.7410 O   0  0  0  0  0  0  0  0  0  0  0  0
    6.5030   14.5870   58.4620 O   0  0  0  0  0  0  0  0  0  0  0  0
    3.5340    8.7830   56.7830 S   0  0  0  0  0  0  0  0  0  0  0  0
  1  3  2  0
  1  4  1  0
  2  5  2  0
  2  6  1  0
  3  9  1  0
  4 10  2  0
  5 11  1  0
  6 12  2  0
  7 13  2  0
  7 15  1  0
  8 14  1  0
  8 15  2  0
  9 16  2  0
 10 16  1  0
 11 17  2  0
 12 17  1  0
 13 18  1  0
 14 18  2  0
 15 19  1  0
 16 20  1  0
 17 21  1  0
 18 27  1  0
 19 23  1  0
 19 26  2  0
 20 22  1  0
 21 22  1  0
 22 27  1  0
 24 27  2  0
 25 27  2  0
M  CHG  1  23  -1
M  END
>  <washed_aromatic_smiles>  (163) 
c1ccc(cc1)CN(Cc2ccccc2)S(=O)(=O)c3ccc(cc3)C(=O)O

>  <name>  (163) 
neg98095

$$$$
neg67347
     RDKit          3D

 31 34  0  0  0  0  0  0  0  0999 V2000
    5.1510    8.6060   58.3180 C   0  0  0  0  0  0  0  0  0  0  0  0
    2.8990    0.3010   55.1180 C   0  0  0  0  0  0  0  0  0  0  0  0
    4.5770    9.8390   58.0310 C   0  0  0  0  0  0  0  0  0  0  0  0
    4.9200    7.5280   57.4730 C   0  0  0  0  0  0  0  0  0  0  0  0
    3.3430   -0.8460   54.5210 C   0  0  0  0  0  0  0  0  0  0  0  0
    1.9740    1.0720   54.4560 C   0  0  0  0  0  0  0  0  0  0  0  0
    3.7790    9.9890   56.9010 C   0  0  0  0  0  0  0  0  0  0  0  0
    4.1210    7.6860   56.3440 C   0  0  0  0  0  0  0  0  0  0  0  0
    2.9010   -1.1840   53.2500 C   0  0  0  0  0  0  0  0  0  0  0  0
    1.5630    0.7680   53.1510 C   0  0  0  0  0  0  0  0  0  0  0  0
    3.5450    8.9140   56.0410 C   0  0  0  0  0  0  0  0  0  0  0  0
    2.1210   -0.3160   52.5090 C   0  0  0  0  0  0  0  0  0  0  0  0
    1.2420    4.2980   50.1900 C   0  0  0  0  0  0  0  0  0  0  0  0
    2.8860    3.1520   48.9290 C   0  0  0  0  0  0  0  0  0  0  0  0
    0.7390    2.4090   48.3450 C   0  0  0  0  0  0  0  0  0  0  0  0
    0.5250    7.0100   52.4060 C   0  0  0  0  0  0  0  0  0  0  0  0
    2.9910    6.6680   51.8850 C   0  0  0  0  0  0  0  0  0  0  0  0
    2.9620    1.9280   49.9090 C   0  0  0  0  0  0  0  0  0  0  0  0
    0.6530    1.2610   49.3810 C   0  0  0  0  0  0  0  0  0  0  0  0
    0.9440    7.6190   53.7590 C   0  0  0  0  0  0  0  0  0  0  0  0
    3.3280    7.2490   53.2600 C   0  0  0  0  0  0  0  0  0  0  0  0
    1.4930    3.7050   48.7950 C   0  0  0  0  0  0  0  0  0  0  0  0
    1.6010    6.0660   51.8440 C   0  0  0  0  0  0  0  0  0  0  0  0
    2.6810    9.1940   54.8190 C   0  0  0  0  0  0  0  0  0  0  0  0
    2.3120    8.2340   53.7060 N   0  0  0  0  0  0  0  0  0  0  0  0
    1.9340    0.9500   50.0000 N   0  0  0  0  0  0  0  0  0  0  0  0
    1.3490    5.5950   50.4780 N   0  0  0  0  0  0  0  0  0  0  0  0
    1.1460    3.5140   51.0990 O   0  0  0  0  0  0  0  0  0  0  0  0
    3.6890   -0.7590   50.5910 O   0  0  0  0  0  0  0  0  0  0  0  0
    1.4160   -1.4560   50.2320 O   0  0  0  0  0  0  0  0  0  0  0  0
    2.2990   -0.4890   50.7430 S   0  0  0  0  0  0  0  0  0  0  0  0
  1  3  2  0
  1  4  1  0
  2  5  2  0
  2  6  1  0
  3  7  1  0
  4  8  2  0
  5  9  1  0
  6 10  2  0
  7 11  2  0
  8 11  1  0
  9 12  2  0
 10 12  1  0
 11 24  1  0
 12 31  1  0
 13 22  1  0
 13 27  1  0
 13 28  2  0
 14 18  1  0
 14 22  1  0
 15 19  1  0
 15 22  1  0
 16 20  1  0
 16 23  1  0
 17 21  1  0
 17 23  1  0
 18 26  1  0
 19 26  1  0
 20 25  1  0
 21 25  1  0
 23 27  1  0
 24 25  1  0
 26 31  1  0
 29 31  2  0
 30 31  2  0
M  CHG  1  25   1
M  END
>  <washed_aromatic_smiles>  (164) 
c1ccc(cc1)CN2CCC(CC2)NC(=O)C3CCN(CC3)S(=O)(=O)c4ccccc4

>  <name>  (164) 
neg67347

$$$$
neg284741
     RDKit          3D

 27 29  0  0  0  0  0  0  0  0999 V2000
    4.7970   10.1840   55.9890 C   0  0  0  0  0  0  0  0  0  0  0  0
    0.8230    1.5000   46.3710 C   0  0  0  0  0  0  0  0  0  0  0  0
    3.6150    9.6960   56.5340 C   0  0  0  0  0  0  0  0  0  0  0  0
    4.9770   10.1880   54.6090 C   0  0  0  0  0  0  0  0  0  0  0  0
    0.7810    2.4870   47.3440 C   0  0  0  0  0  0  0  0  0  0  0  0
    0.8990    0.1740   46.7600 C   0  0  0  0  0  0  0  0  0  0  0  0
    2.6110    9.2160   55.6990 C   0  0  0  0  0  0  0  0  0  0  0  0
    3.9720    9.7100   53.7740 C   0  0  0  0  0  0  0  0  0  0  0  0
    0.7310    2.1330   48.6750 C   0  0  0  0  0  0  0  0  0  0  0  0
    0.7610   -0.1810   48.1010 C   0  0  0  0  0  0  0  0  0  0  0  0
    2.7810    9.2220   54.3150 C   0  0  0  0  0  0  0  0  0  0  0  0
    0.6400    0.8100   49.0690 C   0  0  0  0  0  0  0  0  0  0  0  0
    2.7060    3.5610   51.1260 C   0  0  0  0  0  0  0  0  0  0  0  0
    3.4190    5.4130   52.4290 C   0  0  0  0  0  0  0  0  0  0  0  0
    1.4090    5.5960   51.0930 C   0  0  0  0  0  0  0  0  0  0  0  0
    3.0640    6.6850   53.1910 C   0  0  0  0  0  0  0  0  0  0  0  0
    0.9370    6.7620   51.9810 C   0  0  0  0  0  0  0  0  0  0  0  0
    1.6740    8.7080   53.4090 C   0  0  0  0  0  0  0  0  0  0  0  0
    0.4430    0.4880   50.5350 C   0  0  0  0  0  0  0  0  0  0  0  0
    3.0260    2.2620   51.9160 C   0  0  0  0  0  0  0  0  0  0  0  0
    3.1370    0.9640   51.1080 C   0  0  0  0  0  0  0  0  0  0  0  0
    2.3290    4.6780   51.7830 N   0  0  0  0  0  0  0  0  0  0  0  0
    2.0760    7.5730   52.5230 N   0  0  0  0  0  0  0  0  0  0  0  0
    2.9180    3.6050   49.9170 O   0  0  0  0  0  0  0  0  0  0  0  0
    2.1980   -1.4210   50.6870 O   0  0  0  0  0  0  0  0  0  0  0  0
    1.5670   -0.3290   52.7560 O   0  0  0  0  0  0  0  0  0  0  0  0
    1.8420   -0.2290   51.3610 S   0  0  0  0  0  0  0  0  0  0  0  0
  1  3  2  0
  1  4  1  0
  2  5  2  0
  2  6  1  0
  3  7  1  0
  4  8  2  0
  5  9  1  0
  6 10  2  0
  7 11  2  0
  8 11  1  0
  9 12  2  0
 10 12  1  0
 11 18  1  0
 12 19  1  0
 13 20  1  0
 13 22  1  0
 13 24  2  0
 14 16  1  0
 14 22  1  0
 15 17  1  0
 15 22  1  0
 16 23  1  0
 17 23  1  0
 18 23  1  0
 19 27  1  0
 20 21  1  0
 21 27  1  0
 25 27  2  0
 26 27  2  0
M  CHG  1  23   1
M  END
>  <washed_aromatic_smiles>  (165) 
c1ccc(cc1)CN2CCN(CC2)C(=O)CCS(=O)(=O)Cc3ccccc3

>  <name>  (165) 
neg284741

$$$$
neg48452
     RDKit          3D

 29 32  0  0  0  0  0  0  0  0999 V2000
    4.5100   11.3220   56.1220 C   0  0  0  0  0  0  0  0  0  0  0  0
    0.8440    1.1480   48.1290 C   0  0  0  0  0  0  0  0  0  0  0  0
    4.8890   11.2180   54.7860 C   0  0  0  0  0  0  0  0  0  0  0  0
    3.5380   10.4680   56.6360 C   0  0  0  0  0  0  0  0  0  0  0  0
    0.7500    2.3680   47.4400 C   0  0  0  0  0  0  0  0  0  0  0  0
    1.3950    1.1110   49.3860 C   0  0  0  0  0  0  0  0  0  0  0  0
    4.3000   10.2580   53.9700 C   0  0  0  0  0  0  0  0  0  0  0  0
    2.9420    9.5100   55.8200 C   0  0  0  0  0  0  0  0  0  0  0  0
    1.6660    8.1190   52.9700 C   0  0  0  0  0  0  0  0  0  0  0  0
    3.8190    7.2690   53.5520 C   0  0  0  0  0  0  0  0  0  0  0  0
    1.4430    6.9870   52.1720 C   0  0  0  0  0  0  0  0  0  0  0  0
    3.5950    6.1420   52.7950 C   0  0  0  0  0  0  0  0  0  0  0  0
    1.1660    3.5400   48.0350 C   0  0  0  0  0  0  0  0  0  0  0  0
    2.6940    3.5400   51.8620 C   0  0  0  0  0  0  0  0  0  0  0  0
    1.8630    2.2990   50.0050 C   0  0  0  0  0  0  0  0  0  0  0  0
    3.3240    9.3880   54.4790 C   0  0  0  0  0  0  0  0  0  0  0  0
    2.8790    8.2710   53.6610 C   0  0  0  0  0  0  0  0  0  0  0  0
    2.4200    5.9790   52.0600 C   0  0  0  0  0  0  0  0  0  0  0  0
    2.5030    2.3160   51.2710 C   0  0  0  0  0  0  0  0  0  0  0  0
    1.6400    3.5420   49.3650 C   0  0  0  0  0  0  0  0  0  0  0  0
    2.2770    4.7500   51.2650 C   0  0  0  0  0  0  0  0  0  0  0  0
    2.9140    1.1070   51.9750 C   0  0  0  0  0  0  0  0  0  0  0  0
    4.7440    1.1430   57.2140 C   0  0  0  0  0  0  0  0  0  0  0  0
    2.8840   -0.0670   54.1650 C   0  0  0  0  0  0  0  0  0  0  0  0
    3.2940    0.2180   55.6050 C   0  0  0  0  0  0  0  0  0  0  0  0
    1.8030    4.7390   50.0350 N   0  0  0  0  0  0  0  0  0  0  0  0
    2.7670    1.1150   53.3390 N   0  0  0  0  0  0  0  0  0  0  0  0
    3.3730    0.1090   51.4230 O   0  0  0  0  0  0  0  0  0  0  0  0
    4.4230    1.0240   55.8390 O   0  0  0  0  0  0  0  0  0  0  0  0
  1  3  2  0
  1  4  1  0
  2  5  2  0
  2  6  1  0
  3  7  1  0
  4  8  2  0
  5 13  1  0
  6 15  2  0
  7 16  2  0
  8 16  1  0
  9 11  2  0
  9 17  1  0
 10 12  1  0
 10 17  2  0
 11 18  1  0
 12 18  2  0
 13 20  2  0
 14 19  2  0
 14 21  1  0
 15 19  1  0
 15 20  1  0
 16 17  1  0
 18 21  1  0
 19 22  1  0
 20 26  1  0
 21 26  2  0
 22 27  1  0
 22 28  2  0
 23 29  1  0
 24 25  1  0
 24 27  1  0
 25 29  1  0
M  END
>  <washed_aromatic_smiles>  (166) 
COCCNC(=O)c1cc(nc2c1cccc2)c3ccc(cc3)c4ccccc4

>  <name>  (166) 
neg48452

$$$$
neg177571
     RDKit          3D

 25 26  0  0  0  0  0  0  0  0999 V2000
    3.4860    9.3330   56.5290 C   0  0  0  0  0  0  0  0  0  0  0  0
    2.5620   -0.8020   51.9930 C   0  0  0  0  0  0  0  0  0  0  0  0
    2.9930    0.2530   52.7830 C   0  0  0  0  0  0  0  0  0  0  0  0
    2.1950    9.0290   56.1100 C   0  0  0  0  0  0  0  0  0  0  0  0
    4.5540    9.1250   55.6640 C   0  0  0  0  0  0  0  0  0  0  0  0
    1.8580   -0.5440   50.8300 C   0  0  0  0  0  0  0  0  0  0  0  0
    2.7670    1.5610   52.3880 C   0  0  0  0  0  0  0  0  0  0  0  0
    1.9620    8.5200   54.8330 C   0  0  0  0  0  0  0  0  0  0  0  0
    4.3320    8.6190   54.3900 C   0  0  0  0  0  0  0  0  0  0  0  0
    1.5260    0.7650   50.4540 C   0  0  0  0  0  0  0  0  0  0  0  0
    2.0530    1.8400   51.2080 C   0  0  0  0  0  0  0  0  0  0  0  0
    3.0340    8.3060   53.9620 C   0  0  0  0  0  0  0  0  0  0  0  0
    0.5480    0.9060   49.3860 C   0  0  0  0  0  0  0  0  0  0  0  0
    2.1460    4.3940   51.3980 C   0  0  0  0  0  0  0  0  0  0  0  0
   -4.4230   -2.5260   49.6500 C   0  0  0  0  0  0  0  0  0  0  0  0
    1.4860    5.6710   50.9500 C   0  0  0  0  0  0  0  0  0  0  0  0
   -1.5200   -0.3780   48.6070 C   0  0  0  0  0  0  0  0  0  0  0  0
   -2.9430   -0.6680   49.1830 C   0  0  0  0  0  0  0  0  0  0  0  0
    1.2950    6.7220   52.0740 C   0  0  0  0  0  0  0  0  0  0  0  0
    1.7780    3.1930   50.7850 N   0  0  0  0  0  0  0  0  0  0  0  0
   -0.6210    0.2210   49.6150 N   0  0  0  0  0  0  0  0  0  0  0  0
    0.7040    1.5490   48.3520 O   0  0  0  0  0  0  0  0  0  0  0  0
    2.9610    4.4320   52.2870 O   0  0  0  0  0  0  0  0  0  0  0  0
   -3.3050   -2.0240   48.9470 O   0  0  0  0  0  0  0  0  0  0  0  0
    2.8210    7.6880   52.3410 S   0  0  0  0  0  0  0  0  0  0  0  0
  1  4  2  0
  1  5  1  0
  2  3  2  0
  2  6  1  0
  3  7  1  0
  4  8  1  0
  5  9  2  0
  6 10  2  0
  7 11  2  0
  8 12  2  0
  9 12  1  0
 10 11  1  0
 10 13  1  0
 11 20  1  0
 12 25  1  0
 13 21  1  0
 13 22  2  0
 14 16  1  0
 14 20  1  0
 14 23  2  0
 15 24  1  0
 16 19  1  0
 17 18  1  0
 17 21  1  0
 18 24  1  0
 19 25  1  0
M  END
>  <washed_aromatic_smiles>  (167) 
COCCNC(=O)c1ccccc1NC(=O)CCSc2ccccc2

>  <name>  (167) 
neg177571

$$$$
neg284674
     RDKit          3D

 26 27  0  0  0  0  0  0  0  0999 V2000
    2.4110   -1.4700   52.4650 C   0  0  0  0  0  0  0  0  0  0  0  0
    2.7130   -0.8910   51.2450 C   0  0  0  0  0  0  0  0  0  0  0  0
    2.6050   -0.7960   53.6590 C   0  0  0  0  0  0  0  0  0  0  0  0
    1.0550    5.3210   51.8610 C   0  0  0  0  0  0  0  0  0  0  0  0
    3.1230    0.4170   51.2160 C   0  0  0  0  0  0  0  0  0  0  0  0
    1.3880    6.6490   52.0830 C   0  0  0  0  0  0  0  0  0  0  0  0
    3.0380    4.9890   50.5580 C   0  0  0  0  0  0  0  0  0  0  0  0
    1.9830    4.4580   51.2470 C   0  0  0  0  0  0  0  0  0  0  0  0
    2.9660    0.5370   53.6630 C   0  0  0  0  0  0  0  0  0  0  0  0
    3.0720    1.1560   52.3960 C   0  0  0  0  0  0  0  0  0  0  0  0
    2.5490    7.1390   51.4930 C   0  0  0  0  0  0  0  0  0  0  0  0
    3.1720    6.3490   50.5230 C   0  0  0  0  0  0  0  0  0  0  0  0
    2.0040    3.0300   51.2880 C   0  0  0  0  0  0  0  0  0  0  0  0
    3.1140    1.1450   54.9790 C   0  0  0  0  0  0  0  0  0  0  0  0
    2.6180    9.1300   52.9740 C   0  0  0  0  0  0  0  0  0  0  0  0
    3.2980    6.1010   48.1880 C   0  0  0  0  0  0  0  0  0  0  0  0
    6.1490    2.8220   59.0040 C   0  0  0  0  0  0  0  0  0  0  0  0
    4.3560    1.3520   57.1110 C   0  0  0  0  0  0  0  0  0  0  0  0
    5.6020    0.8190   57.8160 C   0  0  0  0  0  0  0  0  0  0  0  0
    2.9210    2.5180   52.2130 N   0  0  0  0  0  0  0  0  0  0  0  0
    4.0450    0.6540   55.8620 N   0  0  0  0  0  0  0  0  0  0  0  0
    1.2750    2.3180   50.6060 O   0  0  0  0  0  0  0  0  0  0  0  0
    2.4010    2.0300   55.3920 O   0  0  0  0  0  0  0  0  0  0  0  0
    3.0840    8.3550   51.8550 O   0  0  0  0  0  0  0  0  0  0  0  0
    3.7100    6.8260   49.3820 O   0  0  0  0  0  0  0  0  0  0  0  0
    5.8060    1.4450   59.0780 O   0  0  0  0  0  0  0  0  0  0  0  0
  1  2  2  0
  1  3  1  0
  2  5  1  0
  3  9  2  0
  4  6  2  0
  4  8  1  0
  5 10  2  0
  6 11  1  0
  7  8  2  0
  7 12  1  0
  8 13  1  0
  9 10  1  0
  9 14  1  0
 10 20  1  0
 11 12  2  0
 11 24  1  0
 12 25  1  0
 13 20  1  0
 13 22  2  0
 14 21  1  0
 14 23  2  0
 15 24  1  0
 16 25  1  0
 17 26  1  0
 18 19  1  0
 18 21  1  0
 19 26  1  0
M  END
>  <washed_aromatic_smiles>  (168) 
COCCNC(=O)c1ccccc1NC(=O)c2ccc(c(c2)OC)OC

>  <name>  (168) 
neg284674

$$$$
neg286771
     RDKit          3D

 26 28  0  0  0  0  0  0  0  0999 V2000
    5.5970   11.7750   54.8640 C   0  0  0  0  0  0  0  0  0  0  0  0
    2.2260   -0.1240   54.1720 C   0  0  0  0  0  0  0  0  0  0  0  0
    4.9600   11.2070   55.9620 C   0  0  0  0  0  0  0  0  0  0  0  0
    5.4180   11.2260   53.5980 C   0  0  0  0  0  0  0  0  0  0  0  0
    3.1650    0.8470   53.8810 C   0  0  0  0  0  0  0  0  0  0  0  0
    1.1600   -0.3170   53.3120 C   0  0  0  0  0  0  0  0  0  0  0  0
    4.1360   10.0980   55.7920 C   0  0  0  0  0  0  0  0  0  0  0  0
    4.5900   10.1210   53.4280 C   0  0  0  0  0  0  0  0  0  0  0  0
    3.0960    1.5680   52.6930 C   0  0  0  0  0  0  0  0  0  0  0  0
    1.0030    0.4810   52.1850 C   0  0  0  0  0  0  0  0  0  0  0  0
    3.9380    9.5490   54.5240 C   0  0  0  0  0  0  0  0  0  0  0  0
    1.9970    1.4070   51.8510 C   0  0  0  0  0  0  0  0  0  0  0  0
    1.5320    1.8270   49.4010 C   0  0  0  0  0  0  0  0  0  0  0  0
    2.1560    3.5640   50.5080 C   0  0  0  0  0  0  0  0  0  0  0  0
    1.8960    7.1730   52.5210 C   0  0  0  0  0  0  0  0  0  0  0  0
   -1.1430   -0.3530   48.4400 C   0  0  0  0  0  0  0  0  0  0  0  0
    2.9760    8.3810   54.3830 C   0  0  0  0  0  0  0  0  0  0  0  0
    1.0510    0.4410   49.0660 C   0  0  0  0  0  0  0  0  0  0  0  0
    2.1330    6.2820   51.3240 C   0  0  0  0  0  0  0  0  0  0  0  0
    1.5960    2.8120   48.5730 N   0  0  0  0  0  0  0  0  0  0  0  0
    1.9970    3.9250   49.2680 N   0  0  0  0  0  0  0  0  0  0  0  0
    1.8940    2.2340   50.6430 N   0  0  0  0  0  0  0  0  0  0  0  0
    2.9930    7.6890   53.0950 N   0  0  0  0  0  0  0  0  0  0  0  0
    0.7710    7.3060   53.0030 O   0  0  0  0  0  0  0  0  0  0  0  0
   -0.3410    0.3430   49.3700 O   0  0  0  0  0  0  0  0  0  0  0  0
    2.6120    4.6030   51.8350 S   0  0  0  0  0  0  0  0  0  0  0  0
  1  3  2  0
  1  4  1  0
  2  5  2  0
  2  6  1  0
  3  7  1  0
  4  8  2  0
  5  9  1  0
  6 10  2  0
  7 11  2  0
  8 11  1  0
  9 12  2  0
 10 12  1  0
 11 17  1  0
 12 22  1  0
 13 18  1  0
 13 20  2  0
 13 22  1  0
 14 21  2  0
 14 22  1  0
 14 26  1  0
 15 19  1  0
 15 23  1  0
 15 24  2  0
 16 25  1  0
 17 23  1  0
 18 25  1  0
 19 26  1  0
 20 21  1  0
M  END
>  <washed_aromatic_smiles>  (169) 
COCc1nnc(n1c2ccccc2)SCC(=O)NCc3ccccc3

>  <name>  (169) 
neg286771

$$$$
neg300430
     RDKit          3D

 27 29  0  0  0  0  0  0  0  0999 V2000
    3.3100    6.2980   52.7680 C   0  0  0  0  0  0  0  0  0  0  0  0
    1.0200    6.9280   52.9520 C   0  0  0  0  0  0  0  0  0  0  0  0
    3.6110    7.1450   53.7920 C   0  0  0  0  0  0  0  0  0  0  0  0
    1.3450    7.7800   54.0300 C   0  0  0  0  0  0  0  0  0  0  0  0
    2.0110    6.1200   52.3620 C   0  0  0  0  0  0  0  0  0  0  0  0
    2.6650    7.8560   54.5100 C   0  0  0  0  0  0  0  0  0  0  0  0
    1.1580    2.4180   48.3000 C   0  0  0  0  0  0  0  0  0  0  0  0
    1.4300    4.2440   49.1990 C   0  0  0  0  0  0  0  0  0  0  0  0
    1.8790    5.0130   51.4350 C   0  0  0  0  0  0  0  0  0  0  0  0
    6.4660   10.5370   53.0640 C   0  0  0  0  0  0  0  0  0  0  0  0
    5.8920   11.8780   53.5280 C   0  0  0  0  0  0  0  0  0  0  0  0
    6.0000    9.2300   53.7150 C   0  0  0  0  0  0  0  0  0  0  0  0
    5.5050   11.9350   55.0040 C   0  0  0  0  0  0  0  0  0  0  0  0
    5.7180    9.0030   55.2310 C   0  0  0  0  0  0  0  0  0  0  0  0
    4.3430   10.9810   55.2640 C   0  0  0  0  0  0  0  0  0  0  0  0
    0.7900    0.6800   45.6800 C   0  0  0  0  0  0  0  0  0  0  0  0
    0.7140    0.9840   48.1360 C   0  0  0  0  0  0  0  0  0  0  0  0
    1.4690    3.2440   47.3830 N   0  0  0  0  0  0  0  0  0  0  0  0
    1.6480    4.4630   47.9650 N   0  0  0  0  0  0  0  0  0  0  0  0
    4.5340    9.6410   55.7280 N   0  0  0  0  0  0  0  0  0  0  0  0
    1.3750    5.2210   50.1880 N   0  0  0  0  0  0  0  0  0  0  0  0
    2.3890    3.9210   51.6760 O   0  0  0  0  0  0  0  0  0  0  0  0
    2.1550    9.4760   56.5640 O   0  0  0  0  0  0  0  0  0  0  0  0
    3.7040    7.6720   56.9480 O   0  0  0  0  0  0  0  0  0  0  0  0
    1.2020    2.9810   49.4720 O   0  0  0  0  0  0  0  0  0  0  0  0
   -0.0040    0.7860   46.8910 O   0  0  0  0  0  0  0  0  0  0  0  0
    3.2230    8.6800   56.0710 S   0  0  0  0  0  0  0  0  0  0  0  0
  1  3  2  0
  1  5  1  0
  2  4  1  0
  2  5  2  0
  3  6  1  0
  4  6  2  0
  5  9  1  0
  6 27  1  0
  7 17  1  0
  7 18  2  0
  7 25  1  0
  8 19  2  0
  8 21  1  0
  8 25  1  0
  9 21  1  0
  9 22  2  0
 10 11  1  0
 10 12  1  0
 11 13  1  0
 12 14  1  0
 13 15  1  0
 14 20  1  0
 15 20  1  0
 16 26  1  0
 17 26  1  0
 18 19  1  0
 20 27  1  0
 23 27  2  0
 24 27  2  0
M  END
>  <washed_aromatic_smiles>  (170) 
COCc1nnc(o1)NC(=O)c2ccc(cc2)S(=O)(=O)N3CCCCCC3

>  <name>  (170) 
neg300430

$$$$
neg181786
     RDKit          3D

 31 33  0  0  0  0  0  0  0  0999 V2000
    5.4060   12.2140   58.1900 C   0  0  0  0  0  0  0  0  0  0  0  0
    5.0630   10.9680   57.6790 C   0  0  0  0  0  0  0  0  0  0  0  0
    5.5550   13.2970   57.3310 C   0  0  0  0  0  0  0  0  0  0  0  0
    4.8940   10.8000   56.3080 C   0  0  0  0  0  0  0  0  0  0  0  0
    5.3600   13.1320   55.9630 C   0  0  0  0  0  0  0  0  0  0  0  0
    3.6380    6.1950   53.0990 C   0  0  0  0  0  0  0  0  0  0  0  0
    1.5600    6.9390   52.1080 C   0  0  0  0  0  0  0  0  0  0  0  0
    3.8960    7.4680   53.5640 C   0  0  0  0  0  0  0  0  0  0  0  0
    1.8340    8.2330   52.5540 C   0  0  0  0  0  0  0  0  0  0  0  0
    1.8170    2.4780   50.9990 C   0  0  0  0  0  0  0  0  0  0  0  0
    5.0540   11.8830   55.4360 C   0  0  0  0  0  0  0  0  0  0  0  0
    2.5050    5.9370   52.3450 C   0  0  0  0  0  0  0  0  0  0  0  0
    3.0530    8.5040   53.1860 C   0  0  0  0  0  0  0  0  0  0  0  0
    2.2540   -0.2410   50.4740 C   0  0  0  0  0  0  0  0  0  0  0  0
    0.7770    1.5830   50.6950 C   0  0  0  0  0  0  0  0  0  0  0  0
    3.0190    1.8310   51.3100 C   0  0  0  0  0  0  0  0  0  0  0  0
    1.0290    0.3270   50.1970 C   0  0  0  0  0  0  0  0  0  0  0  0
    3.3040    0.5580   50.8840 C   0  0  0  0  0  0  0  0  0  0  0  0
    1.7180    3.9410   50.9820 C   0  0  0  0  0  0  0  0  0  0  0  0
    4.7520   10.3350   53.4490 C   0  0  0  0  0  0  0  0  0  0  0  0
    2.2720   -1.5070   52.3110 C   0  0  0  0  0  0  0  0  0  0  0  0
    4.9290   11.7550   53.9250 C   0  0  0  0  0  0  0  0  0  0  0  0
    2.4270    4.5920   51.9520 N   0  0  0  0  0  0  0  0  0  0  0  0
    3.4560    9.8450   53.3920 N   0  0  0  0  0  0  0  0  0  0  0  0
    1.1200    4.5990   50.1430 O   0  0  0  0  0  0  0  0  0  0  0  0
    5.7270    9.6500   53.2060 O   0  0  0  0  0  0  0  0  0  0  0  0
    2.2690   -1.5070   50.8500 O   0  0  0  0  0  0  0  0  0  0  0  0
   -0.4070    1.6520   51.3230 F   0  0  0  0  0  0  0  0  0  0  0  0
    3.7640    2.2340   52.3020 F   0  0  0  0  0  0  0  0  0  0  0  0
    0.0710   -0.3630   49.5960 F   0  0  0  0  0  0  0  0  0  0  0  0
    4.5390    0.0560   51.0240 F   0  0  0  0  0  0  0  0  0  0  0  0
  1  2  2  0
  1  3  1  0
  2  4  1  0
  3  5  2  0
  4 11  2  0
  5 11  1  0
  6  8  2  0
  6 12  1  0
  7  9  1  0
  7 12  2  0
  8 13  1  0
  9 13  2  0
 10 15  2  0
 10 16  1  0
 10 19  1  0
 11 22  1  0
 12 23  1  0
 13 24  1  0
 14 17  2  0
 14 18  1  0
 14 27  1  0
 15 17  1  0
 15 28  1  0
 16 18  2  0
 16 29  1  0
 17 30  1  0
 18 31  1  0
 19 23  1  0
 19 25  2  0
 20 22  1  0
 20 24  1  0
 20 26  2  0
 21 27  1  0
M  END
>  <washed_aromatic_smiles>  (171) 
COc1c(c(c(c(c1F)F)C(=O)Nc2ccc(cc2)NC(=O)Cc3ccccc3)F)F

>  <name>  (171) 
neg181786

$$$$
neg204226
     RDKit          3D

 25 26  0  0  1  0  0  0  0  0999 V2000
   -0.9390    0.1820   50.1210 C   0  0  0  0  0  0  0  0  0  0  0  0
   -0.7410    0.3140   47.7370 C   0  0  0  0  0  0  0  0  0  0  0  0
    0.8050    1.5420   49.1200 C   0  0  0  0  0  0  0  0  0  0  0  0
   -1.3740   -0.1830   48.8570 C   0  0  0  0  0  0  0  0  0  0  0  0
    0.1840    0.9510   50.2520 C   0  0  0  0  0  0  0  0  0  0  0  0
    0.3650    1.1200   47.8530 C   0  0  0  0  0  0  0  0  0  0  0  0
    1.6890    2.6720   49.2550 C   0  0  0  0  0  0  0  0  0  0  0  0
    3.0720    2.1480   51.2740 C   0  0  0  0  0  0  0  0  0  0  0  0
    1.9410    5.5950   50.9040 C   0  0  0  0  0  0  0  0  0  0  0  0
    2.1450    3.1150   50.5900 C   0  0  1  0  0  0  0  0  0  0  0  0
    2.7090    4.4490   50.2590 C   0  0  1  0  0  0  0  0  0  0  0  0
   -3.6660   -1.0680   49.4960 C   0  0  0  0  0  0  0  0  0  0  0  0
    0.9690    0.0550   52.4120 C   0  0  0  0  0  0  0  0  0  0  0  0
    0.9960    0.7080   45.5020 C   0  0  0  0  0  0  0  0  0  0  0  0
    4.2420    0.0400   51.1040 C   0  0  0  0  0  0  0  0  0  0  0  0
    3.4570    7.0340   49.8380 C   0  0  0  0  0  0  0  0  0  0  0  0
    2.0590    3.4360   48.3120 N   0  0  0  0  0  0  0  0  0  0  0  0
    3.3430    2.2180   52.4690 O   0  0  0  0  0  0  0  0  0  0  0  0
    0.8700    5.5140   51.5070 O   0  0  0  0  0  0  0  0  0  0  0  0
    2.7370    4.4830   48.8060 O   0  0  0  0  0  0  0  0  0  0  0  0
   -2.5230   -0.8880   48.6680 O   0  0  0  0  0  0  0  0  0  0  0  0
    0.5510    1.1340   51.5600 O   0  0  0  0  0  0  0  0  0  0  0  0
    0.9190    1.5630   46.6730 O   0  0  0  0  0  0  0  0  0  0  0  0
    3.4470    1.0800   50.5550 O   0  0  0  0  0  0  0  0  0  0  0  0
    2.4990    6.7760   50.8530 O   0  0  0  0  0  0  0  0  0  0  0  0
  1  4  2  0
  1  5  1  0
  2  4  1  0
  2  6  2  0
  3  5  2  0
  3  6  1  0
  3  7  1  0
  4 21  1  0
  5 22  1  0
  6 23  1  0
  7 10  1  0
  7 17  2  0
 10  8  1  6
  8 18  2  0
  8 24  1  0
 11  9  1  6
  9 19  2  0
  9 25  1  0
 10 11  1  0
 11 20  1  0
 12 21  1  0
 13 22  1  0
 14 23  1  0
 15 24  1  0
 16 25  1  0
 17 20  1  0
M  END
>  <washed_aromatic_smiles>  (172) 
COc1cc(c(c(c1)OC)C2=NO[C@H]([C@@H]2C(=O)OC)C(=O)OC)OC

>  <name>  (172) 
neg204226

$$$$
neg261028
     RDKit          3D

 29 31  0  0  0  0  0  0  0  0999 V2000
    7.5980   14.7860   60.2640 C   0  0  0  0  0  0  0  0  0  0  0  0
    7.7510   14.5780   58.9040 C   0  0  0  0  0  0  0  0  0  0  0  0
    6.6020   14.1040   60.9370 C   0  0  0  0  0  0  0  0  0  0  0  0
    6.8750   13.7480   58.2080 C   0  0  0  0  0  0  0  0  0  0  0  0
    5.8410   13.1580   60.2590 C   0  0  0  0  0  0  0  0  0  0  0  0
    3.2090   10.1990   56.5930 C   0  0  0  0  0  0  0  0  0  0  0  0
    4.0790    9.6150   53.9810 C   0  0  0  0  0  0  0  0  0  0  0  0
    5.9800   12.9310   58.8900 C   0  0  0  0  0  0  0  0  0  0  0  0
    4.3710   10.8050   56.0920 C   0  0  0  0  0  0  0  0  0  0  0  0
    2.8950    9.0700   54.4690 C   0  0  0  0  0  0  0  0  0  0  0  0
    4.7900   10.5180   54.7790 C   0  0  0  0  0  0  0  0  0  0  0  0
    2.4580    9.3660   55.7630 C   0  0  0  0  0  0  0  0  0  0  0  0
    5.2640   11.8180   58.2400 C   0  0  0  0  0  0  0  0  0  0  0  0
    2.4390    7.0840   53.0800 C   0  0  0  0  0  0  0  0  0  0  0  0
    2.9420    4.1100   48.6730 C   0  0  0  0  0  0  0  0  0  0  0  0
    1.4570    4.4550   48.7280 C   0  0  0  0  0  0  0  0  0  0  0  0
    3.7250    5.3020   49.2240 C   0  0  0  0  0  0  0  0  0  0  0  0
    1.0100    5.0030   50.1020 C   0  0  0  0  0  0  0  0  0  0  0  0
    3.2990    5.5980   50.6560 C   0  0  0  0  0  0  0  0  0  0  0  0
    6.1100   11.2580   52.8450 C   0  0  0  0  0  0  0  0  0  0  0  0
    0.3540    8.9270   57.2970 C   0  0  0  0  0  0  0  0  0  0  0  0
    1.4400    6.3960   52.1590 C   0  0  0  0  0  0  0  0  0  0  0  0
    1.8920    6.0050   50.7630 N   0  0  0  0  0  0  0  0  0  0  0  0
    5.1030   11.7880   56.8590 N   0  0  0  0  0  0  0  0  0  0  0  0
    2.0700    8.2870   53.6140 N   0  0  0  0  0  0  0  0  0  0  0  0
    4.8500   10.8630   58.8820 O   0  0  0  0  0  0  0  0  0  0  0  0
    3.5150    6.5970   53.3780 O   0  0  0  0  0  0  0  0  0  0  0  0
    5.8900   11.1880   54.2680 O   0  0  0  0  0  0  0  0  0  0  0  0
    1.2190    8.8700   56.1220 O   0  0  0  0  0  0  0  0  0  0  0  0
  1  2  2  0
  1  3  1  0
  2  4  1  0
  3  5  2  0
  4  8  2  0
  5  8  1  0
  6  9  2  0
  6 12  1  0
  7 10  1  0
  7 11  2  0
  8 13  1  0
  9 11  1  0
  9 24  1  0
 10 12  2  0
 10 25  1  0
 11 28  1  0
 12 29  1  0
 13 24  1  0
 13 26  2  0
 14 22  1  0
 14 25  1  0
 14 27  2  0
 15 16  1  0
 15 17  1  0
 16 18  1  0
 17 19  1  0
 18 23  1  0
 19 23  1  0
 20 28  1  0
 21 29  1  0
 22 23  1  0
M  CHG  1  23   1
M  END
>  <washed_aromatic_smiles>  (173) 
COc1cc(c(cc1NC(=O)CN2CCCCC2)OC)NC(=O)c3ccccc3

>  <name>  (173) 
neg261028

$$$$
neg106109
     RDKit          3D

 25 28  0  0  0  0  0  0  0  0999 V2000
    1.7960    2.6710   49.8750 C   0  0  0  0  0  0  0  0  0  0  0  0
    3.3670    1.1550   51.6400 C   0  0  0  0  0  0  0  0  0  0  0  0
    2.1970    3.2200   51.0970 C   0  0  0  0  0  0  0  0  0  0  0  0
    2.0270    1.3250   49.6260 C   0  0  0  0  0  0  0  0  0  0  0  0
    2.8710    2.3740   52.0120 C   0  0  0  0  0  0  0  0  0  0  0  0
    2.8510    0.5960   50.5100 C   0  0  0  0  0  0  0  0  0  0  0  0
    1.8280    4.5920   51.4030 C   0  0  0  0  0  0  0  0  0  0  0  0
    4.1010    9.0890   53.3120 C   0  0  0  0  0  0  0  0  0  0  0  0
    2.4300    8.7620   55.0290 C   0  0  0  0  0  0  0  0  0  0  0  0
    1.7270    9.2900   52.6780 C   0  0  0  0  0  0  0  0  0  0  0  0
    3.5670    6.7760   53.9410 C   0  0  0  0  0  0  0  0  0  0  0  0
    2.7580    7.3600   51.7430 C   0  0  0  0  0  0  0  0  0  0  0  0
    1.1150    7.1190   53.5270 C   0  0  0  0  0  0  0  0  0  0  0  0
    3.7390    8.2040   54.4840 C   0  0  1  0  0  0  0  0  0  0  0  0
    3.0910    8.7630   52.1880 C   0  0  2  0  0  0  0  0  0  0  0  0
    1.3160    8.5830   53.9720 C   0  0  1  0  0  0  0  0  0  0  0  0
    2.4380    6.5520   52.9350 C   0  0  2  0  0  0  0  0  0  0  0  0
    0.5860    1.3610   47.5430 C   0  0  0  0  0  0  0  0  0  0  0  0
    2.6690    1.4980   54.3280 C   0  0  0  0  0  0  0  0  0  0  0  0
    1.9000   -1.3400   50.9620 C   0  0  0  0  0  0  0  0  0  0  0  0
    2.4980    5.1860   52.4310 N   0  0  0  0  0  0  0  0  0  0  0  0
    0.9410    5.1970   50.8110 O   0  0  0  0  0  0  0  0  0  0  0  0
    1.3870    0.6970   48.5570 O   0  0  0  0  0  0  0  0  0  0  0  0
    2.8990    2.5790   53.3440 O   0  0  0  0  0  0  0  0  0  0  0  0
    3.0470   -0.7230   50.4990 O   0  0  0  0  0  0  0  0  0  0  0  0
  1  3  2  0
  1  4  1  0
  2  5  2  0
  2  6  1  0
  3  5  1  0
  3  7  1  0
  4  6  2  0
  4 23  1  0
  5 24  1  0
  6 25  1  0
  7 21  1  0
  7 22  2  0
 14  8  1  6
 15  8  1  1
  9 14  1  0
 16  9  1  1
 10 15  1  0
 10 16  1  0
 11 14  1  0
 11 17  1  0
 12 15  1  0
 12 17  1  0
 13 16  1  0
 13 17  1  0
 17 21  1  6
 18 23  1  0
 19 24  1  0
 20 25  1  0
M  END
>  <washed_aromatic_smiles>  (174) 
COc1cc(c(cc1OC)OC)C(=O)NC23CC4CC(C2)CC(C4)C3

>  <name>  (174) 
neg106109

$$$$
neg281829
     RDKit          3D

 30 32  0  0  0  0  0  0  0  0999 V2000
    3.8520    9.3000   53.6790 C   0  0  0  0  0  0  0  0  0  0  0  0
    4.9500    1.6500   57.7830 C   0  0  0  0  0  0  0  0  0  0  0  0
    3.1170    8.6530   52.6830 C   0  0  0  0  0  0  0  0  0  0  0  0
    3.9980    1.5820   56.7600 C   0  0  0  0  0  0  0  0  0  0  0  0
    1.2550    2.2310   49.4840 C   0  0  0  0  0  0  0  0  0  0  0  0
    2.6660    2.6210   51.8530 C   0  0  0  0  0  0  0  0  0  0  0  0
    3.2680    8.9930   54.8580 C   0  0  0  0  0  0  0  0  0  0  0  0
    5.5610    0.4460   57.8280 C   0  0  0  0  0  0  0  0  0  0  0  0
    1.6080    3.5000   49.9140 C   0  0  0  0  0  0  0  0  0  0  0  0
    1.5440    1.1520   50.3060 C   0  0  0  0  0  0  0  0  0  0  0  0
    2.3540    3.7280   51.0620 C   0  0  0  0  0  0  0  0  0  0  0  0
    2.1980    1.3420   51.5260 C   0  0  0  0  0  0  0  0  0  0  0  0
    2.1200    7.9750   53.2960 C   0  0  0  0  0  0  0  0  0  0  0  0
    4.0770    0.3440   56.2250 C   0  0  0  0  0  0  0  0  0  0  0  0
    1.6140    4.7410   47.9480 C   0  0  0  0  0  0  0  0  0  0  0  0
    0.4750   -0.4060   48.7040 C   0  0  0  0  0  0  0  0  0  0  0  0
    1.0180    7.0980   52.7390 C   0  0  0  0  0  0  0  0  0  0  0  0
    3.2870   -0.2970   55.1100 C   0  0  0  0  0  0  0  0  0  0  0  0
    1.3810    6.2370   51.6140 N   0  0  0  0  0  0  0  0  0  0  0  0
    3.2000    0.5420   53.9420 N   0  0  0  0  0  0  0  0  0  0  0  0
    3.5010    5.4000   52.7270 O   0  0  0  0  0  0  0  0  0  0  0  0
    3.5500    5.9340   50.3620 O   0  0  0  0  0  0  0  0  0  0  0  0
    1.0090   -0.3420   53.1330 O   0  0  0  0  0  0  0  0  0  0  0  0
    3.0300   -1.0790   52.0440 O   0  0  0  0  0  0  0  0  0  0  0  0
    2.2010    8.1850   54.6380 O   0  0  0  0  0  0  0  0  0  0  0  0
    5.0360   -0.3670   56.8780 O   0  0  0  0  0  0  0  0  0  0  0  0
    1.1310    4.5580   49.2410 O   0  0  0  0  0  0  0  0  0  0  0  0
    1.1570   -0.1170   49.9420 O   0  0  0  0  0  0  0  0  0  0  0  0
    2.8260    5.4210   51.4750 S   0  0  0  0  0  0  0  0  0  0  0  0
    2.3160   -0.0270   52.6750 S   0  0  0  0  0  0  0  0  0  0  0  0
  1  3  1  0
  1  7  2  0
  2  4  1  0
  2  8  2  0
  3 13  2  0
  4 14  2  0
  5  9  2  0
  5 10  1  0
  6 11  2  0
  6 12  1  0
  7 25  1  0
  8 26  1  0
  9 11  1  0
  9 27  1  0
 10 12  2  0
 10 28  1  0
 11 29  1  0
 12 30  1  0
 13 17  1  0
 13 25  1  0
 14 18  1  0
 14 26  1  0
 15 27  1  0
 16 28  1  0
 17 19  1  0
 18 20  1  0
 19 29  1  0
 20 30  1  0
 21 29  2  0
 22 29  2  0
 23 30  2  0
 24 30  2  0
M  END
>  <washed_aromatic_smiles>  (175) 
COc1cc(c(cc1S(=O)(=O)NCc2ccco2)S(=O)(=O)NCc3ccco3)OC

>  <name>  (175) 
neg281829

$$$$
neg27974
     RDKit          3D

 28 30  0  0  0  0  0  0  0  0999 V2000
    3.7260   10.0820   53.2370 C   0  0  0  0  0  0  0  0  0  0  0  0
    4.9880    8.6040   54.6800 C   0  0  0  0  0  0  0  0  0  0  0  0
    4.8900   10.7170   52.8550 C   0  0  0  0  0  0  0  0  0  0  0  0
    6.1670    9.1490   54.1970 C   0  0  0  0  0  0  0  0  0  0  0  0
    1.0020    1.9700   48.4470 C   0  0  0  0  0  0  0  0  0  0  0  0
    1.6850    1.2330   50.6590 C   0  0  0  0  0  0  0  0  0  0  0  0
    1.0530   -0.3960   48.9800 C   0  0  0  0  0  0  0  0  0  0  0  0
    3.7660    9.0250   54.1440 C   0  0  0  0  0  0  0  0  0  0  0  0
    1.4180    2.2470   49.7400 C   0  0  0  0  0  0  0  0  0  0  0  0
    0.8320    0.6400   48.0760 C   0  0  0  0  0  0  0  0  0  0  0  0
    1.5390   -0.0890   50.2500 C   0  0  0  0  0  0  0  0  0  0  0  0
    6.0890   10.2000   53.2910 C   0  0  0  0  0  0  0  0  0  0  0  0
    2.5320    8.3240   54.4080 C   0  0  0  0  0  0  0  0  0  0  0  0
    2.0300    4.2150   51.0990 C   0  0  0  0  0  0  0  0  0  0  0  0
    2.9980    6.4740   51.3920 C   0  0  0  0  0  0  0  0  0  0  0  0
    0.5440    6.1360   52.0050 C   0  0  0  0  0  0  0  0  0  0  0  0
    3.2720    6.4990   52.8910 C   0  0  0  0  0  0  0  0  0  0  0  0
    0.8470    7.0000   53.2530 C   0  0  0  0  0  0  0  0  0  0  0  0
    1.7300    5.6920   51.1180 C   0  0  0  0  0  0  0  0  0  0  0  0
    0.5210    1.2080   45.6810 C   0  0  0  0  0  0  0  0  0  0  0  0
    2.4450   -0.9330   52.4110 C   0  0  0  0  0  0  0  0  0  0  0  0
    2.2390    7.2370   53.6130 N   0  0  0  0  0  0  0  0  0  0  0  0
    1.7170    8.7210   55.2320 O   0  0  0  0  0  0  0  0  0  0  0  0
    2.7220    3.6370   51.9020 O   0  0  0  0  0  0  0  0  0  0  0  0
    1.5040    3.5770   50.0500 O   0  0  0  0  0  0  0  0  0  0  0  0
    0.4950    0.3100   46.7960 O   0  0  0  0  0  0  0  0  0  0  0  0
    1.9360   -1.1200   51.0690 O   0  0  0  0  0  0  0  0  0  0  0  0
    7.1760   10.7400   52.7620 F   0  0  0  0  0  0  0  0  0  0  0  0
  1  3  2  0
  1  8  1  0
  2  4  1  0
  2  8  2  0
  3 12  1  0
  4 12  2  0
  5  9  2  0
  5 10  1  0
  6  9  1  0
  6 11  2  0
  7 10  2  0
  7 11  1  0
  8 13  1  0
  9 25  1  0
 10 26  1  0
 11 27  1  0
 12 28  1  0
 13 22  1  0
 13 23  2  0
 14 19  1  0
 14 24  2  0
 14 25  1  0
 15 17  1  0
 15 19  1  0
 16 18  1  0
 16 19  1  0
 17 22  1  0
 18 22  1  0
 20 26  1  0
 21 27  1  0
M  END
>  <washed_aromatic_smiles>  (176) 
COc1cc(cc(c1)OC(=O)C2CCN(CC2)C(=O)c3ccc(cc3)F)OC

>  <name>  (176) 
neg27974

$$$$
neg314641
     RDKit          3D

 30 33  0  0  0  0  0  0  0  0999 V2000
    5.4140   12.2710   57.7980 C   0  0  0  0  0  0  0  0  0  0  0  0
    5.7090   12.4870   56.4580 C   0  0  0  0  0  0  0  0  0  0  0  0
    4.6220   11.1880   58.1620 C   0  0  0  0  0  0  0  0  0  0  0  0
    5.2280   11.6270   55.4820 C   0  0  0  0  0  0  0  0  0  0  0  0
    4.1170   10.3280   57.1980 C   0  0  0  0  0  0  0  0  0  0  0  0
    1.4990    1.8060   48.4990 C   0  0  0  0  0  0  0  0  0  0  0  0
    2.6030    0.8430   50.4190 C   0  0  0  0  0  0  0  0  0  0  0  0
    1.1230   -0.5220   49.0760 C   0  0  0  0  0  0  0  0  0  0  0  0
    2.1220    1.9430   49.7310 C   0  0  0  0  0  0  0  0  0  0  0  0
    4.4240   10.5300   55.8420 C   0  0  0  0  0  0  0  0  0  0  0  0
    0.9960    0.5480   48.1800 C   0  0  0  0  0  0  0  0  0  0  0  0
    1.9530   -0.3650   50.1970 C   0  0  0  0  0  0  0  0  0  0  0  0
    1.5020    2.8570   50.6200 C   0  0  0  0  0  0  0  0  0  0  0  0
    3.4110    5.9700   50.7650 C   0  0  0  0  0  0  0  0  0  0  0  0
    1.2300    6.2820   52.0870 C   0  0  0  0  0  0  0  0  0  0  0  0
    2.7370    4.8890   49.9290 C   0  0  0  0  0  0  0  0  0  0  0  0
    0.7510    5.1550   51.2050 C   0  0  0  0  0  0  0  0  0  0  0  0
    3.7980    8.2050   55.1780 C   0  0  0  0  0  0  0  0  0  0  0  0
    4.2150    9.8960   53.4290 C   0  0  0  0  0  0  0  0  0  0  0  0
    2.9500    7.3980   54.1770 C   0  0  0  0  0  0  0  0  0  0  0  0
    3.3380    9.0930   52.4640 C   0  0  0  0  0  0  0  0  0  0  0  0
    2.5340    6.9010   51.6310 C   0  0  0  0  0  0  0  0  0  0  0  0
    0.4330    1.2560   45.8710 C   0  0  0  0  0  0  0  0  0  0  0  0
    2.4180   -1.1120   52.4780 C   0  0  0  0  0  0  0  0  0  0  0  0
    3.8950    9.6460   54.8520 N   0  0  0  0  0  0  0  0  0  0  0  0
    1.7540    4.2130   50.7200 N   0  0  0  0  0  0  0  0  0  0  0  0
    3.2840    7.6420   52.7320 N   0  0  0  0  0  0  0  0  0  0  0  0
    0.6300    2.3180   51.2810 O   0  0  0  0  0  0  0  0  0  0  0  0
    0.3660    0.3450   46.9870 O   0  0  0  0  0  0  0  0  0  0  0  0
    2.1480   -1.3880   51.0770 O   0  0  0  0  0  0  0  0  0  0  0  0
  1  2  2  0
  1  3  1  0
  2  4  1  0
  3  5  2  0
  4 10  2  0
  5 10  1  0
  6  9  2  0
  6 11  1  0
  7  9  1  0
  7 12  2  0
  8 11  2  0
  8 12  1  0
  9 13  1  0
 10 25  1  0
 11 29  1  0
 12 30  1  0
 13 26  1  0
 13 28  2  0
 14 16  1  0
 14 22  1  0
 15 17  1  0
 15 22  1  0
 16 26  1  0
 17 26  1  0
 18 20  1  0
 18 25  1  0
 19 21  1  0
 19 25  1  0
 20 27  1  0
 21 27  1  0
 22 27  1  0
 23 29  1  0
 24 30  1  0
M  CHG  1  27   1
M  END
>  <washed_aromatic_smiles>  (177) 
COc1cc(cc(c1)OC)C(=O)N2CCC(CC2)N3CCN(CC3)c4ccccc4

>  <name>  (177) 
neg314641

$$$$
neg103000
     RDKit          3D

 26 28  0  0  0  0  0  0  0  0999 V2000
    0.5280    0.2040   51.6830 C   0  0  0  0  0  0  0  0  0  0  0  0
    0.7550    1.0860   50.6450 C   0  0  0  0  0  0  0  0  0  0  0  0
    3.8290    8.4120   54.1500 C   0  0  0  0  0  0  0  0  0  0  0  0
    1.4430    8.1350   53.8520 C   0  0  0  0  0  0  0  0  0  0  0  0
    2.3300    8.9710   55.9580 C   0  0  0  0  0  0  0  0  0  0  0  0
    1.5990   -0.2580   52.4420 C   0  0  0  0  0  0  0  0  0  0  0  0
    3.0820    1.0040   51.2220 C   0  0  0  0  0  0  0  0  0  0  0  0
    2.0500    1.5500   50.4430 C   0  0  0  0  0  0  0  0  0  0  0  0
    2.7390    8.0720   53.3370 C   0  0  0  0  0  0  0  0  0  0  0  0
    3.6200    8.8670   55.4460 C   0  0  0  0  0  0  0  0  0  0  0  0
    1.2540    8.5730   55.1580 C   0  0  0  0  0  0  0  0  0  0  0  0
    2.2810    2.6650   49.5290 C   0  0  0  0  0  0  0  0  0  0  0  0
    2.9890    7.8070   51.9330 C   0  0  0  0  0  0  0  0  0  0  0  0
    2.1770    4.1630   51.4210 C   0  0  0  0  0  0  0  0  0  0  0  0
    2.7170    5.0800   49.2320 C   0  0  0  0  0  0  0  0  0  0  0  0
    2.6510    5.4310   52.1270 C   0  0  0  0  0  0  0  0  0  0  0  0
    3.3680    6.2700   49.9570 C   0  0  0  0  0  0  0  0  0  0  0  0
    4.6810    9.7040   57.5490 C   0  0  0  0  0  0  0  0  0  0  0  0
   -0.4510    8.5960   57.0660 C   0  0  0  0  0  0  0  0  0  0  0  0
    2.8500    0.1280   52.1960 N   0  0  0  0  0  0  0  0  0  0  0  0
    2.6490    3.8860   50.0710 N   0  0  0  0  0  0  0  0  0  0  0  0
    2.7840    6.5840   51.2940 N   0  0  0  0  0  0  0  0  0  0  0  0
    2.0760    2.5850   48.3250 O   0  0  0  0  0  0  0  0  0  0  0  0
    3.5050    8.6980   51.3020 O   0  0  0  0  0  0  0  0  0  0  0  0
    4.7320    9.2160   56.1890 O   0  0  0  0  0  0  0  0  0  0  0  0
   -0.0350    8.5460   55.6580 O   0  0  0  0  0  0  0  0  0  0  0  0
  1  2  2  0
  1  6  1  0
  2  8  1  0
  3  9  2  0
  3 10  1  0
  4  9  1  0
  4 11  2  0
  5 10  2  0
  5 11  1  0
  6 20  2  0
  7  8  2  0
  7 20  1  0
  8 12  1  0
  9 13  1  0
 10 25  1  0
 11 26  1  0
 12 21  1  0
 12 23  2  0
 13 22  1  0
 13 24  2  0
 14 16  1  0
 14 21  1  0
 15 17  1  0
 15 21  1  0
 16 22  1  0
 17 22  1  0
 18 25  1  0
 19 26  1  0
M  END
>  <washed_aromatic_smiles>  (178) 
COc1cc(cc(c1)OC)C(=O)N2CCN(CC2)C(=O)c3cccnc3

>  <name>  (178) 
neg103000

$$$$
neg329480
     RDKit          3D

 26 28  0  0  0  0  0  0  0  0999 V2000
    0.1640    0.3280   51.3450 C   0  0  0  0  0  0  0  0  0  0  0  0
    0.5690    1.1360   50.2880 C   0  0  0  0  0  0  0  0  0  0  0  0
    1.0510    0.0250   52.3720 C   0  0  0  0  0  0  0  0  0  0  0  0
    1.3200    8.1070   53.8850 C   0  0  0  0  0  0  0  0  0  0  0  0
    3.7190    8.2390   54.1730 C   0  0  0  0  0  0  0  0  0  0  0  0
    2.7540    1.3630   51.2740 C   0  0  0  0  0  0  0  0  0  0  0  0
    2.2710    8.9280   55.9740 C   0  0  0  0  0  0  0  0  0  0  0  0
    2.6070    7.9660   53.3630 C   0  0  0  0  0  0  0  0  0  0  0  0
    1.8470    1.6920   50.2650 C   0  0  0  0  0  0  0  0  0  0  0  0
    1.1690    8.5640   55.1900 C   0  0  0  0  0  0  0  0  0  0  0  0
    3.5480    8.7340   55.4590 C   0  0  0  0  0  0  0  0  0  0  0  0
    2.3350    0.5390   52.3100 C   0  0  0  0  0  0  0  0  0  0  0  0
    2.8660    7.7340   51.9560 C   0  0  0  0  0  0  0  0  0  0  0  0
    1.4070    5.7550   51.4990 C   0  0  0  0  0  0  0  0  0  0  0  0
    3.3680    6.1920   50.0310 C   0  0  0  0  0  0  0  0  0  0  0  0
    1.6530    4.3160   51.0490 C   0  0  0  0  0  0  0  0  0  0  0  0
    2.8120    5.1250   49.0520 C   0  0  0  0  0  0  0  0  0  0  0  0
   -0.4780    8.6070   57.1410 C   0  0  0  0  0  0  0  0  0  0  0  0
    4.6770    9.5530   57.5340 C   0  0  0  0  0  0  0  0  0  0  0  0
    2.1850    2.7340   49.2110 C   0  0  0  0  0  0  0  0  0  0  0  0
    2.5590    6.5830   51.2280 N   0  0  0  0  0  0  0  0  0  0  0  0
    1.8680    4.1370   49.6080 N   0  0  0  0  0  0  0  0  0  0  0  0
    3.4600    8.6240   51.3820 O   0  0  0  0  0  0  0  0  0  0  0  0
   -0.1040    8.5750   55.7210 O   0  0  0  0  0  0  0  0  0  0  0  0
    4.6840    9.0280   56.1880 O   0  0  0  0  0  0  0  0  0  0  0  0
    3.1910    0.2420   53.3080 F   0  0  0  0  0  0  0  0  0  0  0  0
  1  2  2  0
  1  3  1  0
  2  9  1  0
  3 12  2  0
  4  8  2  0
  4 10  1  0
  5  8  1  0
  5 11  2  0
  6  9  2  0
  6 12  1  0
  7 10  2  0
  7 11  1  0
  8 13  1  0
  9 20  1  0
 10 24  1  0
 11 25  1  0
 12 26  1  0
 13 21  1  0
 13 23  2  0
 14 16  1  0
 14 21  1  0
 15 17  1  0
 15 21  1  0
 16 22  1  0
 17 22  1  0
 18 24  1  0
 19 25  1  0
 20 22  1  0
M  END
>  <washed_aromatic_smiles>  (179) 
COc1cc(cc(c1)OC)C(=O)N2CCN(CC2)Cc3cccc(c3)F

>  <name>  (179) 
neg329480

$$$$
neg106398
     RDKit          3D

 26 28  0  0  0  0  0  0  0  0999 V2000
    5.4740    9.0120   59.5180 C   0  0  0  0  0  0  0  0  0  0  0  0
    5.6810   12.8420   53.0740 C   0  0  0  0  0  0  0  0  0  0  0  0
    6.4290    8.2470   58.8990 C   0  0  0  0  0  0  0  0  0  0  0  0
    4.6630    9.8620   58.7750 C   0  0  0  0  0  0  0  0  0  0  0  0
    5.3360   12.8700   54.4130 C   0  0  0  0  0  0  0  0  0  0  0  0
    6.1130   11.6500   52.5010 C   0  0  0  0  0  0  0  0  0  0  0  0
    6.5650    8.3350   57.5360 C   0  0  0  0  0  0  0  0  0  0  0  0
    4.6860    9.8060   57.4010 C   0  0  0  0  0  0  0  0  0  0  0  0
    5.3900   11.7040   55.1620 C   0  0  0  0  0  0  0  0  0  0  0  0
    6.0950   10.4800   53.2290 C   0  0  0  0  0  0  0  0  0  0  0  0
    1.6990    7.6300   53.5920 C   0  0  0  0  0  0  0  0  0  0  0  0
    3.4110    6.1030   52.8620 C   0  0  0  0  0  0  0  0  0  0  0  0
    1.3360    6.2710   51.6180 C   0  0  0  0  0  0  0  0  0  0  0  0
    2.9620    7.0940   53.7530 C   0  0  0  0  0  0  0  0  0  0  0  0
    5.6680    9.0700   56.7530 C   0  0  0  0  0  0  0  0  0  0  0  0
    5.7160   10.4760   54.5610 C   0  0  0  0  0  0  0  0  0  0  0  0
    0.9420    7.2690   52.4950 C   0  0  0  0  0  0  0  0  0  0  0  0
    2.5870    5.6920   51.8100 C   0  0  0  0  0  0  0  0  0  0  0  0
    3.7420    7.6840   54.8180 C   0  0  0  0  0  0  0  0  0  0  0  0
   -0.1380    9.3920   52.5040 C   0  0  0  0  0  0  0  0  0  0  0  0
    2.4720    4.4570   49.6430 C   0  0  0  0  0  0  0  0  0  0  0  0
    5.7680    9.0990   55.2300 C   0  0  0  0  0  0  0  0  0  0  0  0
    4.9690    8.1460   54.4850 N   0  0  0  0  0  0  0  0  0  0  0  0
    3.2990    7.8680   55.9390 O   0  0  0  0  0  0  0  0  0  0  0  0
   -0.1620    7.9730   52.2290 O   0  0  0  0  0  0  0  0  0  0  0  0
    3.0440    4.7210   50.9460 O   0  0  0  0  0  0  0  0  0  0  0  0
  1  3  2  0
  1  4  1  0
  2  5  2  0
  2  6  1  0
  3  7  1  0
  4  8  2  0
  5  9  1  0
  6 10  2  0
  7 15  2  0
  8 15  1  0
  9 16  2  0
 10 16  1  0
 11 14  2  0
 11 17  1  0
 12 14  1  0
 12 18  2  0
 13 17  2  0
 13 18  1  0
 14 19  1  0
 15 22  1  0
 16 22  1  0
 17 25  1  0
 18 26  1  0
 19 23  1  0
 19 24  2  0
 20 25  1  0
 21 26  1  0
 22 23  1  0
M  END
>  <washed_aromatic_smiles>  (180) 
COc1cc(cc(c1)OC)C(=O)NC(c2ccccc2)c3ccccc3

>  <name>  (180) 
neg106398

$$$$
neg182347
     RDKit          3D

 27 28  0  0  0  0  0  0  0  0999 V2000
    2.8370    2.9870   50.8160 C   0  0  0  0  0  0  0  0  0  0  0  0
    0.6220    2.1290   51.2770 C   0  0  0  0  0  0  0  0  0  0  0  0
    3.3390    1.7600   51.1910 C   0  0  0  0  0  0  0  0  0  0  0  0
    1.1220    0.8940   51.5270 C   0  0  0  0  0  0  0  0  0  0  0  0
    3.5170    8.4220   55.2700 C   0  0  0  0  0  0  0  0  0  0  0  0
    3.3090    9.7800   53.2940 C   0  0  0  0  0  0  0  0  0  0  0  0
    5.0770   10.2380   54.8770 C   0  0  0  0  0  0  0  0  0  0  0  0
    2.8200    8.7490   54.0960 C   0  0  0  0  0  0  0  0  0  0  0  0
    1.4820    3.2100   50.9390 C   0  0  0  0  0  0  0  0  0  0  0  0
    4.6480    9.1580   55.6400 C   0  0  0  0  0  0  0  0  0  0  0  0
    4.4060   10.5340   53.6970 C   0  0  0  0  0  0  0  0  0  0  0  0
    2.4760    0.7260   51.4610 C   0  0  0  0  0  0  0  0  0  0  0  0
    1.5930    8.0550   53.7040 C   0  0  0  0  0  0  0  0  0  0  0  0
    1.6320    5.5930   51.6690 C   0  0  0  0  0  0  0  0  0  0  0  0
    5.1300    7.7750   57.6740 C   0  0  0  0  0  0  0  0  0  0  0  0
    5.3480   12.8060   53.5040 C   0  0  0  0  0  0  0  0  0  0  0  0
    1.9850   -1.4910   50.2900 N   0  0  0  0  0  0  0  0  0  0  0  0
    1.0580    4.5670   50.8890 N   0  0  0  0  0  0  0  0  0  0  0  0
    1.3560    7.8700   52.3770 N   0  0  0  0  0  0  0  0  0  0  0  0
    0.7470    6.6350   51.8850 N   0  0  0  0  0  0  0  0  0  0  0  0
    0.7640    7.6260   54.4980 O   0  0  0  0  0  0  0  0  0  0  0  0
    4.3490   -0.8230   50.8240 O   0  0  0  0  0  0  0  0  0  0  0  0
    2.8660   -1.4950   52.6570 O   0  0  0  0  0  0  0  0  0  0  0  0
    5.3920    8.8600   56.7640 O   0  0  0  0  0  0  0  0  0  0  0  0
    4.7690   11.6170   52.9290 O   0  0  0  0  0  0  0  0  0  0  0  0
    3.1920    5.5970   52.3170 S   0  0  0  0  0  0  0  0  0  0  0  0
    3.0430   -0.8830   51.3830 S   0  0  0  0  0  0  0  0  0  0  0  0
  1  3  2  0
  1  9  1  0
  2  4  1  0
  2  9  2  0
  3 12  1  0
  4 12  2  0
  5  8  2  0
  5 10  1  0
  6  8  1  0
  6 11  2  0
  7 10  2  0
  7 11  1  0
  8 13  1  0
  9 18  1  0
 10 24  1  0
 11 25  1  0
 12 27  1  0
 13 19  1  0
 13 21  2  0
 14 18  1  0
 14 20  1  0
 14 26  2  0
 15 24  1  0
 16 25  1  0
 17 27  1  0
 19 20  1  0
 22 27  2  0
 23 27  2  0
M  END
>  <washed_aromatic_smiles>  (181) 
COc1cc(cc(c1)OC)C(=O)NNC(=S)Nc2ccc(cc2)S(=O)(=O)N

>  <name>  (181) 
neg182347

$$$$
neg173238
     RDKit          3D

 27 28  0  0  0  0  0  0  0  0999 V2000
    3.2970    7.2740   54.6130 C   0  0  0  0  0  0  0  0  0  0  0  0
    3.3650    8.5960   52.6200 C   0  0  0  0  0  0  0  0  0  0  0  0
    2.0850    2.2090   49.5120 C   0  0  0  0  0  0  0  0  0  0  0  0
    2.7540    2.9470   52.1140 C   0  0  0  0  0  0  0  0  0  0  0  0
    3.8410    9.6000   54.8050 C   0  0  0  0  0  0  0  0  0  0  0  0
    3.1970    7.3350   53.2190 C   0  0  0  0  0  0  0  0  0  0  0  0
    2.4750    3.5240   49.7880 C   0  0  0  0  0  0  0  0  0  0  0  0
    2.5970    3.9510   51.1380 C   0  0  0  0  0  0  0  0  0  0  0  0
    3.6030    8.3750   55.3980 C   0  0  0  0  0  0  0  0  0  0  0  0
    3.7600    9.6830   53.4220 C   0  0  0  0  0  0  0  0  0  0  0  0
    2.0560    1.2620   50.5200 C   0  0  0  0  0  0  0  0  0  0  0  0
    2.4690    1.6130   51.8060 C   0  0  0  0  0  0  0  0  0  0  0  0
    3.2640    6.0120   52.5620 C   0  0  0  0  0  0  0  0  0  0  0  0
    2.9190    4.2910   48.6570 C   0  0  0  0  0  0  0  0  0  0  0  0
    4.3580    9.1610   57.6380 C   0  0  0  0  0  0  0  0  0  0  0  0
    5.6100   11.0560   52.7690 C   0  0  0  0  0  0  0  0  0  0  0  0
    0.7160   -0.3380   49.1840 C   0  0  0  0  0  0  0  0  0  0  0  0
    2.6830    0.7530   54.1730 C   0  0  0  0  0  0  0  0  0  0  0  0
    3.7150    6.4580   49.0420 C   0  0  0  0  0  0  0  0  0  0  0  0
    2.5060    5.3970   51.5390 N   0  0  0  0  0  0  0  0  0  0  0  0
    4.1280    5.3040   52.9940 O   0  0  0  0  0  0  0  0  0  0  0  0
    3.5360    3.8270   47.7100 O   0  0  0  0  0  0  0  0  0  0  0  0
    3.7410    8.1910   56.7600 O   0  0  0  0  0  0  0  0  0  0  0  0
    4.1830   10.8620   52.8930 O   0  0  0  0  0  0  0  0  0  0  0  0
    1.6310   -0.0330   50.2650 O   0  0  0  0  0  0  0  0  0  0  0  0
    2.5260    0.6010   52.7470 O   0  0  0  0  0  0  0  0  0  0  0  0
    2.6840    5.5740   48.6490 O   0  0  0  0  0  0  0  0  0  0  0  0
  1  6  2  0
  1  9  1  0
  2  6  1  0
  2 10  2  0
  3  7  2  0
  3 11  1  0
  4  8  2  0
  4 12  1  0
  5  9  2  0
  5 10  1  0
  6 13  1  0
  7  8  1  0
  7 14  1  0
  8 20  1  0
  9 23  1  0
 10 24  1  0
 11 12  2  0
 11 25  1  0
 12 26  1  0
 13 20  1  0
 13 21  2  0
 14 22  2  0
 14 27  1  0
 15 23  1  0
 16 24  1  0
 17 25  1  0
 18 26  1  0
 19 27  1  0
M  END
>  <washed_aromatic_smiles>  (182) 
COc1cc(cc(c1)OC)C(=O)Nc2cc(c(cc2C(=O)OC)OC)OC

>  <name>  (182) 
neg173238

$$$$
neg189510
     RDKit          3D

 29 31  0  0  0  0  0  0  0  0999 V2000
    1.5870    4.3020   48.7560 C   0  0  0  0  0  0  0  0  0  0  0  0
    1.8640    3.5530   51.0160 C   0  0  0  0  0  0  0  0  0  0  0  0
    1.2660    2.9890   48.3760 C   0  0  0  0  0  0  0  0  0  0  0  0
    1.3810    2.3060   50.6640 C   0  0  0  0  0  0  0  0  0  0  0  0
    3.3340    0.4820   53.1850 C   0  0  0  0  0  0  0  0  0  0  0  0
    1.1620    7.3980   53.4350 C   0  0  0  0  0  0  0  0  0  0  0  0
    3.1880    8.4930   52.7560 C   0  0  0  0  0  0  0  0  0  0  0  0
    2.1760    9.0790   54.8640 C   0  0  0  0  0  0  0  0  0  0  0  0
    2.5620   -0.6280   53.2730 C   0  0  0  0  0  0  0  0  0  0  0  0
    3.8470    0.8740   51.9110 C   0  0  0  0  0  0  0  0  0  0  0  0
    2.2860    7.4370   52.6000 C   0  0  0  0  0  0  0  0  0  0  0  0
    1.8620    4.5880   50.1000 C   0  0  0  0  0  0  0  0  0  0  0  0
    1.1040    8.2470   54.5460 C   0  0  0  0  0  0  0  0  0  0  0  0
    3.1960    9.2310   53.9330 C   0  0  0  0  0  0  0  0  0  0  0  0
    1.1360    1.9690   49.3340 C   0  0  0  0  0  0  0  0  0  0  0  0
    2.3470   -0.5730   50.9020 C   0  0  0  0  0  0  0  0  0  0  0  0
    2.6700    6.2860   51.7810 C   0  0  0  0  0  0  0  0  0  0  0  0
   -0.2480    8.6670   56.7290 C   0  0  0  0  0  0  0  0  0  0  0  0
    5.4020   10.2960   53.4140 C   0  0  0  0  0  0  0  0  0  0  0  0
    2.2180   -1.2580   52.1040 N   0  0  0  0  0  0  0  0  0  0  0  0
    3.4020    0.3630   50.8190 N   0  0  0  0  0  0  0  0  0  0  0  0
    2.0230    5.9250   50.6010 N   0  0  0  0  0  0  0  0  0  0  0  0
    1.3590   -0.7010   50.1000 N   0  0  0  0  0  0  0  0  0  0  0  0
    3.5910    5.5780   52.1590 O   0  0  0  0  0  0  0  0  0  0  0  0
    1.2670   -0.0670   47.6420 O   0  0  0  0  0  0  0  0  0  0  0  0
   -0.7050    0.1100   49.0020 O   0  0  0  0  0  0  0  0  0  0  0  0
   -0.0310    8.2350   55.3350 O   0  0  0  0  0  0  0  0  0  0  0  0
    4.2100   10.1290   54.2190 O   0  0  0  0  0  0  0  0  0  0  0  0
    0.7070    0.2440   48.9150 S   0  0  0  0  0  0  0  0  0  0  0  0
  1  3  2  0
  1 12  1  0
  2  4  1  0
  2 12  2  0
  3 15  1  0
  4 15  2  0
  5  9  2  0
  5 10  1  0
  6 11  2  0
  6 13  1  0
  7 11  1  0
  7 14  2  0
  8 13  2  0
  8 14  1  0
  9 20  1  0
 10 21  2  0
 11 17  1  0
 12 22  1  0
 13 27  1  0
 14 28  1  0
 15 29  1  0
 16 20  1  0
 16 21  1  0
 16 23  2  0
 17 22  1  0
 17 24  2  0
 18 27  1  0
 19 28  1  0
 23 29  1  0
 25 29  2  0
 26 29  2  0
M  END
>  <washed_aromatic_smiles>  (183) 
COc1cc(cc(c1)OC)C(=O)Nc2ccc(cc2)S(=O)(=O)Nc3ncccn3

>  <name>  (183) 
neg189510

$$$$
neg29143
     RDKit          3D

 27 29  0  0  0  0  0  0  0  0999 V2000
    2.3520    5.0110   48.9940 C   0  0  0  0  0  0  0  0  0  0  0  0
    2.7870    5.7060   50.1230 C   0  0  0  0  0  0  0  0  0  0  0  0
    4.7410   10.7010   57.6370 C   0  0  0  0  0  0  0  0  0  0  0  0
    4.6650   11.1840   55.2700 C   0  0  0  0  0  0  0  0  0  0  0  0
    2.5880    3.6830   51.4810 C   0  0  0  0  0  0  0  0  0  0  0  0
    5.5110   12.8470   56.8140 C   0  0  0  0  0  0  0  0  0  0  0  0
    4.4100   10.3050   56.3290 C   0  0  0  0  0  0  0  0  0  0  0  0
    1.9880    3.6770   49.1410 C   0  0  0  0  0  0  0  0  0  0  0  0
    2.1120    3.0260   50.3510 C   0  0  0  0  0  0  0  0  0  0  0  0
    2.8740    5.0480   51.3620 C   0  0  0  0  0  0  0  0  0  0  0  0
    5.3080   11.9550   57.8660 C   0  0  0  0  0  0  0  0  0  0  0  0
    5.1890   12.4500   55.5230 C   0  0  0  0  0  0  0  0  0  0  0  0
    1.2480    1.5610   48.8600 C   0  0  0  0  0  0  0  0  0  0  0  0
    3.8570    8.9820   56.0590 C   0  0  0  0  0  0  0  0  0  0  0  0
    2.8810    6.9670   52.9890 C   0  0  0  0  0  0  0  0  0  0  0  0
    6.4470   13.4730   59.5050 C   0  0  0  0  0  0  0  0  0  0  0  0
    5.2640   13.0260   53.1190 C   0  0  0  0  0  0  0  0  0  0  0  0
    3.6340    7.4260   54.2210 C   0  0  0  0  0  0  0  0  0  0  0  0
    1.4550    2.7670   48.2340 N   0  0  0  0  0  0  0  0  0  0  0  0
    1.6710    1.7190   50.1610 N   0  0  0  0  0  0  0  0  0  0  0  0
    3.3200    5.7450   52.5160 N   0  0  0  0  0  0  0  0  0  0  0  0
    0.7760    0.5390   48.3540 O   0  0  0  0  0  0  0  0  0  0  0  0
    3.8860    8.0740   56.8760 O   0  0  0  0  0  0  0  0  0  0  0  0
    1.9540    7.5620   52.4750 O   0  0  0  0  0  0  0  0  0  0  0  0
    5.6770   12.2850   59.1590 O   0  0  0  0  0  0  0  0  0  0  0  0
    5.4060   13.3510   54.5110 O   0  0  0  0  0  0  0  0  0  0  0  0
    3.3420    8.7250   54.8130 O   0  0  0  0  0  0  0  0  0  0  0  0
  1  2  2  0
  1  8  1  0
  2 10  1  0
  3  7  2  0
  3 11  1  0
  4  7  1  0
  4 12  2  0
  5  9  1  0
  5 10  2  0
  6 11  2  0
  6 12  1  0
  7 14  1  0
  8  9  2  0
  8 19  1  0
  9 20  1  0
 10 21  1  0
 11 25  1  0
 12 26  1  0
 13 19  1  0
 13 20  1  0
 13 22  2  0
 14 23  2  0
 14 27  1  0
 15 18  1  0
 15 21  1  0
 15 24  2  0
 16 25  1  0
 17 26  1  0
 18 27  1  0
M  END
>  <washed_aromatic_smiles>  (184) 
COc1cc(cc(c1)OC)C(=O)OCC(=O)Nc2ccc3c(c2)[nH]c(=O)[nH]3

>  <name>  (184) 
neg29143

$$$$
neg135772
     RDKit          3D

 26 28  0  0  0  0  0  0  0  0999 V2000
    1.6540    3.7020   48.3570 C   0  0  0  0  0  0  0  0  0  0  0  0
    1.6010    2.0400   50.1400 C   0  0  0  0  0  0  0  0  0  0  0  0
    2.2820    4.5930   49.2010 C   0  0  0  0  0  0  0  0  0  0  0  0
    2.2340    2.9440   50.9870 C   0  0  0  0  0  0  0  0  0  0  0  0
    1.9600    8.6700   55.1830 C   0  0  0  0  0  0  0  0  0  0  0  0
    4.1840    9.4640   54.6280 C   0  0  0  0  0  0  0  0  0  0  0  0
    3.2220    9.9510   56.8070 C   0  0  0  0  0  0  0  0  0  0  0  0
    1.1000   -0.1010   46.5220 C   0  0  0  0  0  0  0  0  0  0  0  0
    1.1120    0.2140   47.8320 C   0  0  0  0  0  0  0  0  0  0  0  0
    0.3240    1.8380   46.6510 C   0  0  0  0  0  0  0  0  0  0  0  0
    1.3080    2.4350   48.8320 C   0  0  0  0  0  0  0  0  0  0  0  0
    3.0410    8.7300   54.3000 C   0  0  0  0  0  0  0  0  0  0  0  0
    2.5200    4.2290   50.5270 C   0  0  0  0  0  0  0  0  0  0  0  0
    2.0860    9.2280   56.4470 C   0  0  0  0  0  0  0  0  0  0  0  0
    4.2440   10.1000   55.8670 C   0  0  0  0  0  0  0  0  0  0  0  0
    2.1260    7.1600   52.5540 C   0  0  0  0  0  0  0  0  0  0  0  0
   -0.3410    8.7080   57.2120 C   0  0  0  0  0  0  0  0  0  0  0  0
    5.2160   12.1020   56.9240 C   0  0  0  0  0  0  0  0  0  0  0  0
    2.4780    6.5120   51.2530 C   0  0  0  0  0  0  0  0  0  0  0  0
    0.5710    0.9090   45.7840 N   0  0  0  0  0  0  0  0  0  0  0  0
    0.7690    1.5070   47.8910 N   0  0  0  0  0  0  0  0  0  0  0  0
    3.0530    8.0450   53.0570 N   0  0  0  0  0  0  0  0  0  0  0  0
    1.0760    6.8950   53.1050 O   0  0  0  0  0  0  0  0  0  0  0  0
    1.0670    9.0720   57.3670 O   0  0  0  0  0  0  0  0  0  0  0  0
    5.3330   10.9000   56.1280 O   0  0  0  0  0  0  0  0  0  0  0  0
    2.9910    5.1640   51.4130 O   0  0  0  0  0  0  0  0  0  0  0  0
  1  3  2  0
  1 11  1  0
  2  4  1  0
  2 11  2  0
  3 13  1  0
  4 13  2  0
  5 12  2  0
  5 14  1  0
  6 12  1  0
  6 15  2  0
  7 14  2  0
  7 15  1  0
  8  9  2  0
  8 20  1  0
  9 21  1  0
 10 20  2  0
 10 21  1  0
 11 21  1  0
 12 22  1  0
 13 26  1  0
 14 24  1  0
 15 25  1  0
 16 19  1  0
 16 22  1  0
 16 23  2  0
 17 24  1  0
 18 25  1  0
 19 26  1  0
M  END
>  <washed_aromatic_smiles>  (185) 
COc1cc(cc(c1)OC)NC(=O)COc2ccc(cc2)n3ccnc3

>  <name>  (185) 
neg135772

$$$$
neg6283
     RDKit          3D

 28 30  0  0  0  0  0  0  0  0999 V2000
    4.9030    8.9010   57.4510 C   0  0  0  0  0  0  0  0  0  0  0  0
    3.9440    9.8910   57.3090 C   0  0  0  0  0  0  0  0  0  0  0  0
    4.8430    7.7750   56.6430 C   0  0  0  0  0  0  0  0  0  0  0  0
    2.9320    9.7480   56.3680 C   0  0  0  0  0  0  0  0  0  0  0  0
    3.8470    7.6510   55.6770 C   0  0  0  0  0  0  0  0  0  0  0  0
    1.0220    6.6280   52.9800 C   0  0  0  0  0  0  0  0  0  0  0  0
    2.8780    7.9650   52.3640 C   0  0  0  0  0  0  0  0  0  0  0  0
    2.1240    1.1710   50.3230 C   0  0  0  0  0  0  0  0  0  0  0  0
    2.8380    1.8440   52.5320 C   0  0  0  0  0  0  0  0  0  0  0  0
    2.2060   -0.4560   52.1280 C   0  0  0  0  0  0  0  0  0  0  0  0
    1.1370    5.9100   51.8020 C   0  0  0  0  0  0  0  0  0  0  0  0
    2.9420    7.2400   51.1750 C   0  0  0  0  0  0  0  0  0  0  0  0
    2.8640    8.6240   55.5250 C   0  0  0  0  0  0  0  0  0  0  0  0
    1.9070    7.6550   53.3110 C   0  0  0  0  0  0  0  0  0  0  0  0
    2.5740    2.1370   51.2120 C   0  0  0  0  0  0  0  0  0  0  0  0
    1.9120   -0.1190   50.8010 C   0  0  0  0  0  0  0  0  0  0  0  0
    2.6630    0.5560   52.9840 C   0  0  0  0  0  0  0  0  0  0  0  0
    1.7580    8.3640   54.5880 C   0  0  0  0  0  0  0  0  0  0  0  0
    2.7110    4.0430   49.6660 C   0  0  0  0  0  0  0  0  0  0  0  0
    0.5380   -0.6300   48.8260 C   0  0  0  0  0  0  0  0  0  0  0  0
    3.0050   -0.8130   54.9660 C   0  0  0  0  0  0  0  0  0  0  0  0
    2.2510    5.4580   49.6530 C   0  0  0  0  0  0  0  0  0  0  0  0
    2.1190    6.2080   50.9390 N   0  0  0  0  0  0  0  0  0  0  0  0
    2.6850    3.4790   50.8940 N   0  0  0  0  0  0  0  0  0  0  0  0
    0.6210    8.6130   54.9360 O   0  0  0  0  0  0  0  0  0  0  0  0
    3.0040    3.4350   48.6540 O   0  0  0  0  0  0  0  0  0  0  0  0
    1.3600   -1.0530   49.9560 O   0  0  0  0  0  0  0  0  0  0  0  0
    2.9530    0.4160   54.3060 O   0  0  0  0  0  0  0  0  0  0  0  0
  1  2  2  0
  1  3  1  0
  2  4  1  0
  3  5  2  0
  4 13  2  0
  5 13  1  0
  6 11  2  0
  6 14  1  0
  7 12  1  0
  7 14  2  0
  8 15  2  0
  8 16  1  0
  9 15  1  0
  9 17  2  0
 10 16  2  0
 10 17  1  0
 11 23  1  0
 12 23  2  0
 13 18  1  0
 14 18  1  0
 15 24  1  0
 16 27  1  0
 17 28  1  0
 18 25  2  0
 19 22  1  0
 19 24  1  0
 19 26  2  0
 20 27  1  0
 21 28  1  0
 22 23  1  0
M  CHG  1  23   1
M  END
>  <washed_aromatic_smiles>  (186) 
COc1cc(cc(c1)OC)NC(=O)C[n+]2ccc(cc2)C(=O)c3ccccc3

>  <name>  (186) 
neg6283

$$$$
neg222279
     RDKit          3D

 25 27  0  0  0  0  0  0  0  0999 V2000
    1.9190    1.3220   49.9420 C   0  0  0  0  0  0  0  0  0  0  0  0
    1.2420    1.1530   48.7390 C   0  0  0  0  0  0  0  0  0  0  0  0
    2.2520    2.6050   50.3360 C   0  0  0  0  0  0  0  0  0  0  0  0
    2.4850    9.3740   55.5620 C   0  0  0  0  0  0  0  0  0  0  0  0
    0.2320    8.5310   55.1740 C   0  0  0  0  0  0  0  0  0  0  0  0
    0.9970    8.9860   57.4050 C   0  0  0  0  0  0  0  0  0  0  0  0
    0.9460    2.2660   47.9600 C   0  0  0  0  0  0  0  0  0  0  0  0
    1.5100    8.8580   54.7120 C   0  0  0  0  0  0  0  0  0  0  0  0
    2.2460    9.3730   56.9170 C   0  0  0  0  0  0  0  0  0  0  0  0
   -0.0140    8.5920   56.5520 C   0  0  0  0  0  0  0  0  0  0  0  0
    1.8730    3.6830   49.5220 C   0  0  0  0  0  0  0  0  0  0  0  0
    2.8240    7.6660   53.1910 C   0  0  0  0  0  0  0  0  0  0  0  0
    0.8670    5.4240   50.7680 C   0  0  0  0  0  0  0  0  0  0  0  0
    3.2960    5.4620   50.4540 C   0  0  0  0  0  0  0  0  0  0  0  0
    1.0520    6.4930   51.8560 C   0  0  0  0  0  0  0  0  0  0  0  0
    3.3200    5.5460   51.9890 C   0  0  0  0  0  0  0  0  0  0  0  0
    4.5630   10.2330   57.4210 C   0  0  0  0  0  0  0  0  0  0  0  0
   -1.6020    8.0120   58.5190 C   0  0  0  0  0  0  0  0  0  0  0  0
    1.2590    3.5020   48.3440 N   0  0  0  0  0  0  0  0  0  0  0  0
    2.0110    5.0050   49.9470 N   0  0  0  0  0  0  0  0  0  0  0  0
    2.3880    6.5590   52.4540 N   0  0  0  0  0  0  0  0  0  0  0  0
    1.8320    8.6250   53.3800 N   0  0  0  0  0  0  0  0  0  0  0  0
    3.2670    9.7080   57.7840 O   0  0  0  0  0  0  0  0  0  0  0  0
   -1.1330    8.0450   57.1470 O   0  0  0  0  0  0  0  0  0  0  0  0
    4.3460    7.8130   53.8980 S   0  0  0  0  0  0  0  0  0  0  0  0
  1  2  2  0
  1  3  1  0
  2  7  1  0
  3 11  2  0
  4  8  2  0
  4  9  1  0
  5  8  1  0
  5 10  2  0
  6  9  2  0
  6 10  1  0
  7 19  2  0
  8 22  1  0
  9 23  1  0
 10 24  1  0
 11 19  1  0
 11 20  1  0
 12 21  1  0
 12 22  1  0
 12 25  2  0
 13 15  1  0
 13 20  1  0
 14 16  1  0
 14 20  1  0
 15 21  1  0
 16 21  1  0
 17 23  1  0
 18 24  1  0
M  END
>  <washed_aromatic_smiles>  (187) 
COc1cc(cc(c1)OC)NC(=S)N2CCN(CC2)c3ccccn3

>  <name>  (187) 
neg222279

$$$$
neg324836
     RDKit          3D

 35 37  0  0  0  0  0  0  0  0999 V2000
    1.2720    3.4320   48.2710 C   0  0  0  0  0  0  0  0  0  0  0  0
    2.0400    2.5950   50.4160 C   0  0  0  0  0  0  0  0  0  0  0  0
    0.1050    7.1570   52.4940 C   0  0  0  0  0  0  0  0  0  0  0  0
    2.4260    6.9640   54.0020 C   0  0  0  0  0  0  0  0  0  0  0  0
    1.7480    3.6700   49.5670 C   0  0  0  0  0  0  0  0  0  0  0  0
    1.0660    6.2570   52.1020 C   0  0  0  0  0  0  0  0  0  0  0  0
    1.5690    7.9880   54.2960 C   0  0  0  0  0  0  0  0  0  0  0  0
    0.9700    2.1320   47.8740 C   0  0  0  0  0  0  0  0  0  0  0  0
    1.7570    1.2940   50.0090 C   0  0  0  0  0  0  0  0  0  0  0  0
    2.1930    6.1590   52.8860 C   0  0  0  0  0  0  0  0  0  0  0  0
    0.4180    8.0840   53.5010 C   0  0  0  0  0  0  0  0  0  0  0  0
    1.1720    1.0670   48.7620 C   0  0  0  0  0  0  0  0  0  0  0  0
    1.8820    5.0160   50.0820 C   0  0  0  0  0  0  0  0  0  0  0  0
    2.9980    8.8890   56.2560 C   0  0  0  0  0  0  0  0  0  0  0  0
    5.5010   12.5400   53.6280 C   0  0  0  0  0  0  0  0  0  0  0  0
    5.0730   11.0780   53.3870 C   0  0  0  0  0  0  0  0  0  0  0  0
    4.8710   13.1890   54.8780 C   0  0  0  0  0  0  0  0  0  0  0  0
    5.0400   10.2530   54.6800 C   0  0  0  0  0  0  0  0  0  0  0  0
    4.8990   12.2690   56.1020 C   0  0  0  0  0  0  0  0  0  0  0  0
    0.8080    0.9250   45.6470 C   0  0  0  0  0  0  0  0  0  0  0  0
    2.6590    0.2770   52.1190 C   0  0  0  0  0  0  0  0  0  0  0  0
    4.2630    5.6660   52.5860 C   0  0  0  0  0  0  0  0  0  0  0  0
   -0.2770    9.8920   52.3270 C   0  0  0  0  0  0  0  0  0  0  0  0
   -0.6930   -0.3180   48.5120 C   0  0  0  0  0  0  0  0  0  0  0  0
    3.5430   10.1920   56.7850 C   0  0  0  0  0  0  0  0  0  0  0  0
    4.2720   10.9810   55.7390 N   0  0  0  0  0  0  0  0  0  0  0  0
    0.8900    5.4130   50.9700 N   0  0  0  0  0  0  0  0  0  0  0  0
    1.9460    8.9410   55.3230 N   0  0  0  0  0  0  0  0  0  0  0  0
    2.8280    5.7490   49.8180 O   0  0  0  0  0  0  0  0  0  0  0  0
    3.5990    7.8730   56.5340 O   0  0  0  0  0  0  0  0  0  0  0  0
    0.4290    1.9530   46.6070 O   0  0  0  0  0  0  0  0  0  0  0  0
    2.0140    0.2040   50.8280 O   0  0  0  0  0  0  0  0  0  0  0  0
    3.0200    5.1490   52.6530 O   0  0  0  0  0  0  0  0  0  0  0  0
   -0.3440    9.1720   53.5710 O   0  0  0  0  0  0  0  0  0  0  0  0
    0.7320   -0.1920   48.4760 O   0  0  0  0  0  0  0  0  0  0  0  0
  1  5  2  0
  1  8  1  0
  2  5  1  0
  2  9  2  0
  3  6  2  0
  3 11  1  0
  4  7  1  0
  4 10  2  0
  5 13  1  0
  6 10  1  0
  6 27  1  0
  7 11  2  0
  7 28  1  0
  8 12  2  0
  8 31  1  0
  9 12  1  0
  9 32  1  0
 10 33  1  0
 11 34  1  0
 12 35  1  0
 13 27  1  0
 13 29  2  0
 14 25  1  0
 14 28  1  0
 14 30  2  0
 15 16  1  0
 15 17  1  0
 16 18  1  0
 17 19  1  0
 18 26  1  0
 19 26  1  0
 20 31  1  0
 21 32  1  0
 22 33  1  0
 23 34  1  0
 24 35  1  0
 25 26  1  0
M  CHG  1  26   1
M  END
>  <washed_aromatic_smiles>  (188) 
COc1cc(cc(c1OC)OC)C(=O)Nc2cc(c(cc2OC)NC(=O)CN3CCCCC3)OC

>  <name>  (188) 
neg324836

$$$$
neg222025
     RDKit          3D

 26 27  0  0  0  0  0  0  0  0999 V2000
    1.9000    8.1770   52.5090 C   0  0  0  0  0  0  0  0  0  0  0  0
    2.3160    9.4880   52.7180 C   0  0  0  0  0  0  0  0  0  0  0  0
    0.9960    3.3840   51.0970 C   0  0  0  0  0  0  0  0  0  0  0  0
    3.0020    3.1650   50.0390 C   0  0  0  0  0  0  0  0  0  0  0  0
    3.9780    7.4350   53.3910 C   0  0  0  0  0  0  0  0  0  0  0  0
    2.1120    3.9980   50.6740 C   0  0  0  0  0  0  0  0  0  0  0  0
    4.4150    8.7310   53.6400 C   0  0  0  0  0  0  0  0  0  0  0  0
    2.8170    7.1540   52.7090 C   0  0  0  0  0  0  0  0  0  0  0  0
    0.7910    2.0110   51.1630 C   0  0  0  0  0  0  0  0  0  0  0  0
    2.9360    1.7590   50.3070 C   0  0  0  0  0  0  0  0  0  0  0  0
    1.8320    1.1760   50.8850 C   0  0  0  0  0  0  0  0  0  0  0  0
    3.6040    9.7810   53.2060 C   0  0  0  0  0  0  0  0  0  0  0  0
    2.0800    5.4030   51.0450 C   0  0  0  0  0  0  0  0  0  0  0  0
   -0.9500    0.4600   50.7870 C   0  0  0  0  0  0  0  0  0  0  0  0
    4.7210    0.4930   51.2300 C   0  0  0  0  0  0  0  0  0  0  0  0
    1.7660   -0.4870   52.6450 C   0  0  0  0  0  0  0  0  0  0  0  0
    5.7980    8.9260   54.2550 C   0  0  0  0  0  0  0  0  0  0  0  0
    2.7930    5.8310   52.1430 N   0  0  0  0  0  0  0  0  0  0  0  0
    1.1850    6.1130   50.6540 O   0  0  0  0  0  0  0  0  0  0  0  0
   -0.4140    1.5270   51.5600 O   0  0  0  0  0  0  0  0  0  0  0  0
    3.9150    0.8610   50.1420 O   0  0  0  0  0  0  0  0  0  0  0  0
    1.8100   -0.1670   51.2310 O   0  0  0  0  0  0  0  0  0  0  0  0
    6.6390    7.9670   53.9140 F   0  0  0  0  0  0  0  0  0  0  0  0
    6.4480   10.0330   53.8990 F   0  0  0  0  0  0  0  0  0  0  0  0
    5.7320    8.9190   55.5950 F   0  0  0  0  0  0  0  0  0  0  0  0
    4.2420   11.4180   53.1590 Cl  0  0  0  0  0  0  0  0  0  0  0  0
  1  2  2  0
  1  8  1  0
  2 12  1  0
  3  6  2  0
  3  9  1  0
  4  6  1  0
  4 10  2  0
  5  7  1  0
  5  8  2  0
  6 13  1  0
  7 12  2  0
  7 17  1  0
  8 18  1  0
  9 11  2  0
  9 20  1  0
 10 11  1  0
 10 21  1  0
 11 22  1  0
 12 26  1  0
 13 18  1  0
 13 19  2  0
 14 20  1  0
 15 21  1  0
 16 22  1  0
 17 23  1  0
 17 24  1  0
 17 25  1  0
M  END
>  <washed_aromatic_smiles>  (189) 
COc1cc(cc(c1OC)OC)C(=O)Nc2ccc(c(c2)C(F)(F)F)Cl

>  <name>  (189) 
neg222025

$$$$
neg218888
     RDKit          3D

 28 31  0  0  0  0  0  0  0  0999 V2000
    0.3350    0.9840   47.6080 C   0  0  0  0  0  0  0  0  0  0  0  0
    0.3880   -0.1060   48.4840 C   0  0  0  0  0  0  0  0  0  0  0  0
    0.8880    2.2090   47.9760 C   0  0  0  0  0  0  0  0  0  0  0  0
    2.1550    4.8200   49.5420 C   0  0  0  0  0  0  0  0  0  0  0  0
    1.0230    0.0050   49.7130 C   0  0  0  0  0  0  0  0  0  0  0  0
    2.6180    5.7520   50.4750 C   0  0  0  0  0  0  0  0  0  0  0  0
    4.0650    9.6410   53.5570 C   0  0  0  0  0  0  0  0  0  0  0  0
    3.8640    7.9440   55.2550 C   0  0  0  0  0  0  0  0  0  0  0  0
    2.8380    3.9940   52.1250 C   0  0  0  0  0  0  0  0  0  0  0  0
    1.4910    2.3280   49.2280 C   0  0  0  0  0  0  0  0  0  0  0  0
    2.0280    3.4790   49.9170 C   0  0  0  0  0  0  0  0  0  0  0  0
    3.6270    8.3690   53.9430 C   0  0  0  0  0  0  0  0  0  0  0  0
    1.5700    1.2220   50.0690 C   0  0  0  0  0  0  0  0  0  0  0  0
    2.4130    3.0790   51.1880 C   0  0  0  0  0  0  0  0  0  0  0  0
    2.9260    5.3400   51.7780 C   0  0  0  0  0  0  0  0  0  0  0  0
    4.6600   10.5010   54.4790 C   0  0  0  0  0  0  0  0  0  0  0  0
    4.4430    8.8010   56.1890 C   0  0  0  0  0  0  0  0  0  0  0  0
    4.8200   10.1010   55.8180 C   0  0  0  0  0  0  0  0  0  0  0  0
    2.8980    7.5160   53.0100 C   0  0  0  0  0  0  0  0  0  0  0  0
    2.2490    1.5880   51.3620 C   0  0  0  0  0  0  0  0  0  0  0  0
    5.2270   12.9740   54.7270 C   0  0  0  0  0  0  0  0  0  0  0  0
    5.1630    7.0710   57.8510 C   0  0  0  0  0  0  0  0  0  0  0  0
    4.8510   11.1720   58.0820 C   0  0  0  0  0  0  0  0  0  0  0  0
    3.3870    6.2420   52.7710 N   0  0  0  0  0  0  0  0  0  0  0  0
    1.8560    7.8640   52.4690 O   0  0  0  0  0  0  0  0  0  0  0  0
    5.0460   11.7450   53.9880 O   0  0  0  0  0  0  0  0  0  0  0  0
    4.6320    8.3670   57.4920 O   0  0  0  0  0  0  0  0  0  0  0  0
    5.3600   10.9830   56.7420 O   0  0  0  0  0  0  0  0  0  0  0  0
  1  2  2  0
  1  3  1  0
  2  5  1  0
  3 10  2  0
  4  6  1  0
  4 11  2  0
  5 13  2  0
  6 15  2  0
  7 12  2  0
  7 16  1  0
  8 12  1  0
  8 17  2  0
  9 14  2  0
  9 15  1  0
 10 11  1  0
 10 13  1  0
 11 14  1  0
 12 19  1  0
 13 20  1  0
 14 20  1  0
 15 24  1  0
 16 18  2  0
 16 26  1  0
 17 18  1  0
 17 27  1  0
 18 28  1  0
 19 24  1  0
 19 25  2  0
 21 26  1  0
 22 27  1  0
 23 28  1  0
M  END
>  <washed_aromatic_smiles>  (190) 
COc1cc(cc(c1OC)OC)C(=O)Nc2ccc-3c(c2)Cc4c3cccc4

>  <name>  (190) 
neg218888

$$$$
neg6029
     RDKit          3D

 25 26  0  0  0  0  0  0  0  0999 V2000
    1.4950    1.7600   48.6380 C   0  0  0  0  0  0  0  0  0  0  0  0
    2.7200    2.7450   50.4860 C   0  0  0  0  0  0  0  0  0  0  0  0
    2.1730    2.8440   49.1980 C   0  0  0  0  0  0  0  0  0  0  0  0
    1.3210    0.6160   49.4010 C   0  0  0  0  0  0  0  0  0  0  0  0
    2.5300    1.6140   51.2510 C   0  0  0  0  0  0  0  0  0  0  0  0
    1.7530    0.5850   50.7260 C   0  0  0  0  0  0  0  0  0  0  0  0
    2.2870    4.0930   48.4920 C   0  0  0  0  0  0  0  0  0  0  0  0
    2.5730    6.1700   50.6230 C   0  0  0  0  0  0  0  0  0  0  0  0
    2.0940    8.7670   55.2820 C   0  0  0  0  0  0  0  0  0  0  0  0
    3.4110    8.0240   55.0750 C   0  0  0  0  0  0  0  0  0  0  0  0
    0.9220    8.2570   54.4100 C   0  0  0  0  0  0  0  0  0  0  0  0
    3.7120    7.8900   53.5930 C   0  0  0  0  0  0  0  0  0  0  0  0
    1.3020    8.2300   52.9340 C   0  0  0  0  0  0  0  0  0  0  0  0
    2.5250    7.3210   52.8030 C   0  0  0  0  0  0  0  0  0  0  0  0
   -0.7000   -0.2750   48.5390 C   0  0  0  0  0  0  0  0  0  0  0  0
    2.9470    0.6370   53.5850 C   0  0  0  0  0  0  0  0  0  0  0  0
   -0.0510    0.3660   52.0080 C   0  0  0  0  0  0  0  0  0  0  0  0
    3.4560    6.0260   49.3770 C   0  0  0  0  0  0  0  0  0  0  0  0
    2.9170    7.1780   51.4230 N   0  0  0  0  0  0  0  0  0  0  0  0
    1.4060    4.5870   47.8160 O   0  0  0  0  0  0  0  0  0  0  0  0
    1.6100    5.4510   50.8960 O   0  0  0  0  0  0  0  0  0  0  0  0
    0.6720   -0.4690   48.8770 O   0  0  0  0  0  0  0  0  0  0  0  0
    3.0750    1.6240   52.5320 O   0  0  0  0  0  0  0  0  0  0  0  0
    1.1570   -0.2740   51.5530 O   0  0  0  0  0  0  0  0  0  0  0  0
    3.4280    4.7570   48.6990 O   0  0  0  0  0  0  0  0  0  0  0  0
  1  3  2  0
  1  4  1  0
  2  3  1  0
  2  5  2  0
  3  7  1  0
  4  6  2  0
  4 22  1  0
  5  6  1  0
  5 23  1  0
  6 24  1  0
  7 20  2  0
  7 25  1  0
  8 18  1  0
  8 19  1  0
  8 21  2  0
  9 10  1  0
  9 11  1  0
 10 12  1  0
 11 13  1  0
 12 14  1  0
 13 14  1  0
 14 19  1  0
 15 22  1  0
 16 23  1  0
 17 24  1  0
 18 25  1  0
M  END
>  <washed_aromatic_smiles>  (191) 
COc1cc(cc(c1OC)OC)C(=O)OCC(=O)NC2CCCCC2

>  <name>  (191) 
neg6029

$$$$
neg84851
     RDKit          3D

 38 40  0  0  0  0  0  0  0  0999 V2000
    4.6100    8.5940   56.7750 C   0  0  0  0  0  0  0  0  0  0  0  0
    5.3380   10.1290   58.4940 C   0  0  0  0  0  0  0  0  0  0  0  0
    1.4620    0.6790   53.4390 C   0  0  0  0  0  0  0  0  0  0  0  0
    2.8300   -1.1970   52.9690 C   0  0  0  0  0  0  0  0  0  0  0  0
    5.0470    8.8140   58.0980 C   0  0  0  0  0  0  0  0  0  0  0  0
    2.4060   -0.2510   53.8920 C   0  0  0  0  0  0  0  0  0  0  0  0
    4.5110    9.6560   55.8720 C   0  0  0  0  0  0  0  0  0  0  0  0
    5.2490   11.1850   57.5850 C   0  0  0  0  0  0  0  0  0  0  0  0
    1.1120    0.7400   52.0690 C   0  0  0  0  0  0  0  0  0  0  0  0
    2.6930   -0.9190   51.6240 C   0  0  0  0  0  0  0  0  0  0  0  0
    4.8620   10.9540   56.2640 C   0  0  0  0  0  0  0  0  0  0  0  0
    1.6550   -0.1540   51.1600 C   0  0  0  0  0  0  0  0  0  0  0  0
    5.2030    7.7310   59.0720 C   0  0  0  0  0  0  0  0  0  0  0  0
    3.1000   -0.2630   55.1850 C   0  0  0  0  0  0  0  0  0  0  0  0
    5.1060    6.4060   58.7840 C   0  0  0  0  0  0  0  0  0  0  0  0
    3.4830    0.7560   56.0100 C   0  0  0  0  0  0  0  0  0  0  0  0
    5.2120    5.3220   59.7650 C   0  0  0  0  0  0  0  0  0  0  0  0
    4.2920    0.4970   57.2230 C   0  0  0  0  0  0  0  0  0  0  0  0
    5.6360    3.7380   57.9210 C   0  0  0  0  0  0  0  0  0  0  0  0
    5.2230    2.8050   60.2130 C   0  0  0  0  0  0  0  0  0  0  0  0
    5.7600    2.2580   57.6030 C   0  0  0  0  0  0  0  0  0  0  0  0
    4.6730    1.4920   59.5360 C   0  0  0  0  0  0  0  0  0  0  0  0
    3.4850    8.2280   54.0480 C   0  0  0  0  0  0  0  0  0  0  0  0
    6.0630   12.9230   59.2280 C   0  0  0  0  0  0  0  0  0  0  0  0
    1.4140    2.7000   50.8010 C   0  0  0  0  0  0  0  0  0  0  0  0
    4.4950    0.3110   50.8550 C   0  0  0  0  0  0  0  0  0  0  0  0
    5.2210   12.0080   53.9960 C   0  0  0  0  0  0  0  0  0  0  0  0
    0.0590    0.0750   49.1990 C   0  0  0  0  0  0  0  0  0  0  0  0
    5.3080    4.0050   59.3200 N   0  0  0  0  0  0  0  0  0  0  0  0
    4.6260    1.5400   58.0580 N   0  0  0  0  0  0  0  0  0  0  0  0
    5.2120    5.5250   60.9760 O   0  0  0  0  0  0  0  0  0  0  0  0
    4.7270   -0.6150   57.5260 O   0  0  0  0  0  0  0  0  0  0  0  0
    4.0460    9.4470   54.5820 O   0  0  0  0  0  0  0  0  0  0  0  0
    5.5680   12.4870   57.9450 O   0  0  0  0  0  0  0  0  0  0  0  0
    0.4630    1.7940   51.5080 O   0  0  0  0  0  0  0  0  0  0  0  0
    3.8010   -0.9410   50.8520 O   0  0  0  0  0  0  0  0  0  0  0  0
    4.8540   12.0440   55.3960 O   0  0  0  0  0  0  0  0  0  0  0  0
    1.3280   -0.2460   49.8110 O   0  0  0  0  0  0  0  0  0  0  0  0
  1  5  2  0
  1  7  1  0
  2  5  1  0
  2  8  2  0
  3  6  2  0
  3  9  1  0
  4  6  1  0
  4 10  2  0
  5 13  1  0
  6 14  1  0
  7 11  2  0
  7 33  1  0
  8 11  1  0
  8 34  1  0
  9 12  2  0
  9 35  1  0
 10 12  1  0
 10 36  1  0
 11 37  1  0
 12 38  1  0
 13 15  2  0
 14 16  2  0
 15 17  1  0
 16 18  1  0
 17 29  1  0
 17 31  2  0
 18 30  1  0
 18 32  2  0
 19 21  1  0
 19 29  1  0
 20 22  1  0
 20 29  1  0
 21 30  1  0
 22 30  1  0
 23 33  1  0
 24 34  1  0
 25 35  1  0
 26 36  1  0
 27 37  1  0
 28 38  1  0
M  END
>  <washed_aromatic_smiles>  (192) 
COc1c(c(cc(c1)/C=C/C(=O)N2CCN(CC2)C(=O)/C=C/c3cc(c(c(c3)OC)OC)OC)OC)OC

>  <name>  (192) 
neg84851

$$$$
neg209255
     RDKit          3D

 30 31  0  0  0  0  0  0  0  0999 V2000
    0.7780   -0.3390   48.6290 C   0  0  0  0  0  0  0  0  0  0  0  0
    1.2380   -0.2120   49.9390 C   0  0  0  0  0  0  0  0  0  0  0  0
    1.8780    7.4640   53.7310 C   0  0  0  0  0  0  0  0  0  0  0  0
    3.9640    7.8540   54.8460 C   0  0  0  0  0  0  0  0  0  0  0  0
    1.3040    2.0030   48.2130 C   0  0  0  0  0  0  0  0  0  0  0  0
    3.2200    7.1530   53.8860 C   0  0  0  0  0  0  0  0  0  0  0  0
    1.8400    2.0850   49.4840 C   0  0  0  0  0  0  0  0  0  0  0  0
    0.8670    0.7680   47.7820 C   0  0  0  0  0  0  0  0  0  0  0  0
    1.2580    8.3610   54.5790 C   0  0  0  0  0  0  0  0  0  0  0  0
    3.3140    8.6650   55.7760 C   0  0  0  0  0  0  0  0  0  0  0  0
    1.9260    8.8110   55.7250 C   0  0  0  0  0  0  0  0  0  0  0  0
    1.7910    0.9960   50.3730 C   0  0  0  0  0  0  0  0  0  0  0  0
    3.1080    4.1200   48.9750 C   0  0  0  0  0  0  0  0  0  0  0  0
    3.0520    5.6350   51.8010 C   0  0  0  0  0  0  0  0  0  0  0  0
   -0.0180    9.2380   52.7880 C   0  0  0  0  0  0  0  0  0  0  0  0
    3.9860   10.6680   57.0240 C   0  0  0  0  0  0  0  0  0  0  0  0
   -0.1520    8.8250   57.2340 C   0  0  0  0  0  0  0  0  0  0  0  0
    3.7860    6.0030   53.0650 C   0  0  0  0  0  0  0  0  0  0  0  0
    3.0930    5.5580   49.3770 C   0  0  0  0  0  0  0  0  0  0  0  0
    2.4410    3.2900   49.8410 N   0  0  0  0  0  0  0  0  0  0  0  0
    0.6930    0.6650   46.3770 N   0  0  0  0  0  0  0  0  0  0  0  0
    1.2410   -0.2390   45.7820 O   0  0  0  0  0  0  0  0  0  0  0  0
    3.6200    3.7150   47.9450 O   0  0  0  0  0  0  0  0  0  0  0  0
    1.9230    5.1410   51.8150 O   0  0  0  0  0  0  0  0  0  0  0  0
    0.1430    1.5510   45.7540 O   0  0  0  0  0  0  0  0  0  0  0  0
    0.0160    8.7760   54.1870 O   0  0  0  0  0  0  0  0  0  0  0  0
    4.0710    9.2450   56.7750 O   0  0  0  0  0  0  0  0  0  0  0  0
    1.2520    9.1660   56.9050 O   0  0  0  0  0  0  0  0  0  0  0  0
    3.7010    5.8070   50.6420 O   0  0  0  0  0  0  0  0  0  0  0  0
    2.4400    1.1180   51.9770 Cl  0  0  0  0  0  0  0  0  0  0  0  0
  1  2  2  0
  1  8  1  0
  2 12  1  0
  3  6  2  0
  3  9  1  0
  4  6  1  0
  4 10  2  0
  5  7  1  0
  5  8  2  0
  6 18  1  0
  7 12  2  0
  7 20  1  0
  8 21  1  0
  9 11  2  0
  9 26  1  0
 10 11  1  0
 10 27  1  0
 11 28  1  0
 12 30  1  0
 13 19  1  0
 13 20  1  0
 13 23  2  0
 14 18  1  0
 14 24  2  0
 14 29  1  0
 15 26  1  0
 16 27  1  0
 17 28  1  0
 19 29  1  0
 21 22  1  0
 21 25  2  0
M  CHG  2  21   1  22  -1
M  END
>  <washed_aromatic_smiles>  (193) 
COc1cc(cc(c1OC)OC)CC(=O)OCC(=O)Nc2cc(ccc2Cl)[N+](=O)[O-]

>  <name>  (193) 
neg209255

$$$$
neg87354
     RDKit          3D

 29 31  0  0  0  0  0  0  0  0999 V2000
    5.7690   12.2280   56.2510 C   0  0  0  0  0  0  0  0  0  0  0  0
    5.2920   12.0920   57.5500 C   0  0  0  0  0  0  0  0  0  0  0  0
    5.3520   11.3530   55.2530 C   0  0  0  0  0  0  0  0  0  0  0  0
    4.3600   11.1030   57.8480 C   0  0  0  0  0  0  0  0  0  0  0  0
    2.8060    2.7240   51.9470 C   0  0  0  0  0  0  0  0  0  0  0  0
    1.4130    2.2300   50.0350 C   0  0  0  0  0  0  0  0  0  0  0  0
    2.1870    3.1290   50.7680 C   0  0  0  0  0  0  0  0  0  0  0  0
    4.4180   10.3490   55.5440 C   0  0  0  0  0  0  0  0  0  0  0  0
    2.6240    1.4450   52.4220 C   0  0  0  0  0  0  0  0  0  0  0  0
    1.1780    0.9550   50.5530 C   0  0  0  0  0  0  0  0  0  0  0  0
    1.7550    0.5870   51.7680 C   0  0  0  0  0  0  0  0  0  0  0  0
    3.8860   10.2660   56.8420 C   0  0  0  0  0  0  0  0  0  0  0  0
    2.7940    6.8220   51.3730 C   0  0  0  0  0  0  0  0  0  0  0  0
    4.1020    8.0020   54.7000 C   0  0  0  0  0  0  0  0  0  0  0  0
    4.2050    9.7600   53.1570 C   0  0  0  0  0  0  0  0  0  0  0  0
    3.0750    7.1850   53.8710 C   0  0  0  0  0  0  0  0  0  0  0  0
    3.2450    9.0160   52.2360 C   0  0  0  0  0  0  0  0  0  0  0  0
    2.5990    1.0640   54.7920 C   0  0  0  0  0  0  0  0  0  0  0  0
    0.1290    0.0110   48.4840 C   0  0  0  0  0  0  0  0  0  0  0  0
    2.5560   -1.5160   52.2970 C   0  0  0  0  0  0  0  0  0  0  0  0
    2.3530    4.5590   50.3420 C   0  0  0  0  0  0  0  0  0  0  0  0
    1.9700    5.5520   51.4630 C   0  0  0  0  0  0  0  0  0  0  0  0
    3.9360    9.4570   54.5440 N   0  0  0  0  0  0  0  0  0  0  0  0
    3.0030    7.6030   52.4660 N   0  0  0  0  0  0  0  0  0  0  0  0
    3.2350    7.1100   50.2590 O   0  0  0  0  0  0  0  0  0  0  0  0
    3.3020    1.0690   53.5520 O   0  0  0  0  0  0  0  0  0  0  0  0
    0.3740    0.0400   49.9030 O   0  0  0  0  0  0  0  0  0  0  0  0
    1.4830   -0.6030   52.3380 O   0  0  0  0  0  0  0  0  0  0  0  0
    2.5690    9.2030   57.1710 Cl  0  0  0  0  0  0  0  0  0  0  0  0
  1  2  2  0
  1  3  1  0
  2  4  1  0
  3  8  2  0
  4 12  2  0
  5  7  2  0
  5  9  1  0
  6  7  1  0
  6 10  2  0
  7 21  1  0
  8 12  1  0
  8 23  1  0
  9 11  2  0
  9 26  1  0
 10 11  1  0
 10 27  1  0
 11 28  1  0
 12 29  1  0
 13 22  1  0
 13 24  1  0
 13 25  2  0
 14 16  1  0
 14 23  1  0
 15 17  1  0
 15 23  1  0
 16 24  1  0
 17 24  1  0
 18 26  1  0
 19 27  1  0
 20 28  1  0
 21 22  1  0
M  END
>  <washed_aromatic_smiles>  (194) 
COc1cc(cc(c1OC)OC)CCC(=O)N2CCN(CC2)c3ccccc3Cl

>  <name>  (194) 
neg87354

$$$$
neg101066
     RDKit          3D

 28 30  0  0  0  0  0  0  0  0999 V2000
    2.1730   -0.4920   53.7120 C   0  0  0  0  0  0  0  0  0  0  0  0
    2.5910   -1.3030   52.6720 C   0  0  0  0  0  0  0  0  0  0  0  0
    1.2170    0.4780   53.4680 C   0  0  0  0  0  0  0  0  0  0  0  0
    2.0940   -1.1180   51.3920 C   0  0  0  0  0  0  0  0  0  0  0  0
    0.6650    0.6240   52.2000 C   0  0  0  0  0  0  0  0  0  0  0  0
    3.1740    7.3800   50.8040 C   0  0  0  0  0  0  0  0  0  0  0  0
    1.7660    5.6020   51.4150 C   0  0  0  0  0  0  0  0  0  0  0  0
    2.6790    6.1150   50.5210 C   0  0  0  0  0  0  0  0  0  0  0  0
    3.0570    7.9650   52.0750 C   0  0  0  0  0  0  0  0  0  0  0  0
    1.5240    6.2770   52.5900 C   0  0  0  0  0  0  0  0  0  0  0  0
    2.2960    7.3300   53.0320 C   0  0  0  0  0  0  0  0  0  0  0  0
    1.1150   -0.1690   51.1490 C   0  0  0  0  0  0  0  0  0  0  0  0
    2.6910    3.1480   50.1320 C   0  0  0  0  0  0  0  0  0  0  0  0
    1.2910    3.9480   48.3670 C   0  0  0  0  0  0  0  0  0  0  0  0
    2.6230    1.7650   49.5910 C   0  0  0  0  0  0  0  0  0  0  0  0
    0.8850    2.4690   48.0490 C   0  0  0  0  0  0  0  0  0  0  0  0
    4.4320    9.4690   53.5380 C   0  0  0  0  0  0  0  0  0  0  0  0
   -0.5000    6.8530   52.1650 C   0  0  0  0  0  0  0  0  0  0  0  0
    1.0810    8.5010   54.7190 C   0  0  0  0  0  0  0  0  0  0  0  0
    3.0950    5.4230   49.2320 C   0  0  0  0  0  0  0  0  0  0  0  0
    2.6170    4.0530   48.9830 N   0  0  0  0  0  0  0  0  0  0  0  0
    1.2600    1.5400   49.1360 N   0  0  0  0  0  0  0  0  0  0  0  0
    1.0400   -0.9240   48.6300 O   0  0  0  0  0  0  0  0  0  0  0  0
   -0.8740    0.2300   49.5310 O   0  0  0  0  0  0  0  0  0  0  0  0
    3.6890    9.1700   52.3360 O   0  0  0  0  0  0  0  0  0  0  0  0
    0.3100    6.1360   53.0600 O   0  0  0  0  0  0  0  0  0  0  0  0
    2.2290    7.7580   54.3320 O   0  0  0  0  0  0  0  0  0  0  0  0
    0.5340    0.0960   49.4850 S   0  0  0  0  0  0  0  0  0  0  0  0
  1  2  2  0
  1  3  1  0
  2  4  1  0
  3  5  2  0
  4 12  2  0
  5 12  1  0
  6  8  2  0
  6  9  1  0
  7  8  1  0
  7 10  2  0
  8 20  1  0
  9 11  2  0
  9 25  1  0
 10 11  1  0
 10 26  1  0
 11 27  1  0
 12 28  1  0
 13 15  1  0
 13 21  1  0
 14 16  1  0
 14 21  1  0
 15 22  1  0
 16 22  1  0
 17 25  1  0
 18 26  1  0
 19 27  1  0
 20 21  1  0
 22 28  1  0
 23 28  2  0
 24 28  2  0
M  END
>  <washed_aromatic_smiles>  (195) 
COc1cc(cc(c1OC)OC)CN2CCN(CC2)S(=O)(=O)c3ccccc3

>  <name>  (195) 
neg101066

$$$$
neg84040
     RDKit          3D

 30 32  0  0  0  0  0  0  0  0999 V2000
    6.2320   12.0610   53.2420 C   0  0  0  0  0  0  0  0  0  0  0  0
    4.3500    8.4880   57.7650 C   0  0  0  0  0  0  0  0  0  0  0  0
    6.0360   11.1440   52.2290 C   0  0  0  0  0  0  0  0  0  0  0  0
    5.5080   12.0120   54.4110 C   0  0  0  0  0  0  0  0  0  0  0  0
    3.0670    8.8850   57.4000 C   0  0  0  0  0  0  0  0  0  0  0  0
    5.2410    8.0850   56.7850 C   0  0  0  0  0  0  0  0  0  0  0  0
    5.0350   10.2040   52.3580 C   0  0  0  0  0  0  0  0  0  0  0  0
    4.5600   11.0260   54.5590 C   0  0  0  0  0  0  0  0  0  0  0  0
    2.6580    8.8730   56.0900 C   0  0  0  0  0  0  0  0  0  0  0  0
    4.8540    8.1330   55.4510 C   0  0  0  0  0  0  0  0  0  0  0  0
    2.8240    2.6920   52.1720 C   0  0  0  0  0  0  0  0  0  0  0  0
    2.1650    3.5720   50.0050 C   0  0  0  0  0  0  0  0  0  0  0  0
    4.2950   10.1160   53.5200 C   0  0  0  0  0  0  0  0  0  0  0  0
    3.5670    8.5510   55.1080 C   0  0  0  0  0  0  0  0  0  0  0  0
    2.5720    3.7770   51.3250 C   0  0  0  0  0  0  0  0  0  0  0  0
    2.5690    1.3950   51.7370 C   0  0  0  0  0  0  0  0  0  0  0  0
    1.9620    2.2610   49.5710 C   0  0  0  0  0  0  0  0  0  0  0  0
    2.0980    1.1750   50.4460 C   0  0  0  0  0  0  0  0  0  0  0  0
    1.7450    6.0610   51.8500 C   0  0  0  0  0  0  0  0  0  0  0  0
    2.6590    0.3940   54.0190 C   0  0  0  0  0  0  0  0  0  0  0  0
    0.7460    2.6670   47.4480 C   0  0  0  0  0  0  0  0  0  0  0  0
    0.7090   -0.4610   49.1510 C   0  0  0  0  0  0  0  0  0  0  0  0
    1.9030    7.2530   52.7830 C   0  0  0  0  0  0  0  0  0  0  0  0
    3.2590    9.0210   53.7240 C   0  0  0  0  0  0  0  0  0  0  0  0
    2.7190    5.0870   51.8740 N   0  0  0  0  0  0  0  0  0  0  0  0
    3.2160    7.9190   52.7550 N   0  0  0  0  0  0  0  0  0  0  0  0
    0.7450    5.9100   51.1740 O   0  0  0  0  0  0  0  0  0  0  0  0
    2.7330    0.3040   52.5790 O   0  0  0  0  0  0  0  0  0  0  0  0
    1.6860    2.0060   48.2650 O   0  0  0  0  0  0  0  0  0  0  0  0
    1.7390   -0.1270   50.1060 O   0  0  0  0  0  0  0  0  0  0  0  0
  1  3  2  0
  1  4  1  0
  2  5  2  0
  2  6  1  0
  3  7  1  0
  4  8  2  0
  5  9  1  0
  6 10  2  0
  7 13  2  0
  8 13  1  0
  9 14  2  0
 10 14  1  0
 11 15  2  0
 11 16  1  0
 12 15  1  0
 12 17  2  0
 13 24  1  0
 14 24  1  0
 15 25  1  0
 16 18  2  0
 16 28  1  0
 17 18  1  0
 17 29  1  0
 18 30  1  0
 19 23  1  0
 19 25  1  0
 19 27  2  0
 20 28  1  0
 21 29  1  0
 22 30  1  0
 23 26  1  0
 24 26  1  0
M  END
>  <washed_aromatic_smiles>  (196) 
COc1cc(cc(c1OC)OC)NC(=O)CNC(c2ccccc2)c3ccccc3

>  <name>  (196) 
neg84040

$$$$
neg226499
     RDKit          3D

 31 33  0  0  0  0  0  0  0  0999 V2000
    1.8760    8.4420   52.6360 C   0  0  0  0  0  0  0  0  0  0  0  0
    3.4970    6.7890   53.3160 C   0  0  0  0  0  0  0  0  0  0  0  0
    2.7640    9.4440   53.0000 C   0  0  0  0  0  0  0  0  0  0  0  0
    4.3290    7.8110   53.7530 C   0  0  0  0  0  0  0  0  0  0  0  0
    2.9070    2.6700   50.9830 C   0  0  0  0  0  0  0  0  0  0  0  0
    0.6170    2.1480   51.2940 C   0  0  0  0  0  0  0  0  0  0  0  0
    2.2880    7.1180   52.7110 C   0  0  0  0  0  0  0  0  0  0  0  0
    1.5900    3.0580   50.9180 C   0  0  0  0  0  0  0  0  0  0  0  0
    3.2220    1.4160   51.5030 C   0  0  0  0  0  0  0  0  0  0  0  0
    0.8930    0.8580   51.5830 C   0  0  0  0  0  0  0  0  0  0  0  0
    2.2130    0.4900   51.7580 C   0  0  0  0  0  0  0  0  0  0  0  0
    3.9910    9.1440   53.5850 C   0  0  0  0  0  0  0  0  0  0  0  0
    2.0260    5.4660   50.9460 C   0  0  0  0  0  0  0  0  0  0  0  0
    5.5360    9.1780   56.5300 C   0  0  0  0  0  0  0  0  0  0  0  0
    4.1100   11.1020   56.4400 C   0  0  0  0  0  0  0  0  0  0  0  0
    4.3340    8.3240   56.9960 C   0  0  0  0  0  0  0  0  0  0  0  0
    2.9180   10.1730   56.6820 C   0  0  0  0  0  0  0  0  0  0  0  0
    5.1690    0.2610   50.8140 C   0  0  0  0  0  0  0  0  0  0  0  0
   -1.1880    0.3220   50.5660 C   0  0  0  0  0  0  0  0  0  0  0  0
    2.1840   -1.5230   50.9070 C   0  0  0  0  0  0  0  0  0  0  0  0
    5.1650   10.3820   55.7480 N   0  0  0  0  0  0  0  0  0  0  0  0
    1.5350    6.1240   52.0810 N   0  0  0  0  0  0  0  0  0  0  0  0
    1.2190    4.3930   50.6260 N   0  0  0  0  0  0  0  0  0  0  0  0
    6.4830    9.9130   53.6340 O   0  0  0  0  0  0  0  0  0  0  0  0
    4.7950   11.6460   53.5730 O   0  0  0  0  0  0  0  0  0  0  0  0
    3.2950    9.1180   57.5520 O   0  0  0  0  0  0  0  0  0  0  0  0
    4.5170    1.0940   51.7630 O   0  0  0  0  0  0  0  0  0  0  0  0
   -0.2150    0.0570   51.6480 O   0  0  0  0  0  0  0  0  0  0  0  0
    2.4880   -0.7780   52.0610 O   0  0  0  0  0  0  0  0  0  0  0  0
    3.3830    5.9020   50.0510 S   0  0  0  0  0  0  0  0  0  0  0  0
    5.2050   10.3720   54.0680 S   0  0  0  0  0  0  0  0  0  0  0  0
  1  3  2  0
  1  7  1  0
  2  4  1  0
  2  7  2  0
  3 12  1  0
  4 12  2  0
  5  8  2  0
  5  9  1  0
  6  8  1  0
  6 10  2  0
  7 22  1  0
  8 23  1  0
  9 11  2  0
  9 27  1  0
 10 11  1  0
 10 28  1  0
 11 29  1  0
 12 31  1  0
 13 22  1  0
 13 23  1  0
 13 30  2  0
 14 16  1  0
 14 21  1  0
 15 17  1  0
 15 21  1  0
 16 26  1  0
 17 26  1  0
 18 27  1  0
 19 28  1  0
 20 29  1  0
 21 31  1  0
 24 31  2  0
 25 31  2  0
M  END
>  <washed_aromatic_smiles>  (197) 
COc1cc(cc(c1OC)OC)NC(=S)Nc2ccc(cc2)S(=O)(=O)N3CCOCC3

>  <name>  (197) 
neg226499

$$$$
neg263163
     RDKit          3D

 27 29  0  0  0  0  0  0  0  0999 V2000
    0.7200    2.0270   47.4640 C   0  0  0  0  0  0  0  0  0  0  0  0
    0.5290    0.6860   47.7610 C   0  0  0  0  0  0  0  0  0  0  0  0
    1.1490    2.9050   48.4470 C   0  0  0  0  0  0  0  0  0  0  0  0
    0.6210    6.4100   52.4960 C   0  0  0  0  0  0  0  0  0  0  0  0
    1.0850    7.2560   53.5110 C   0  0  0  0  0  0  0  0  0  0  0  0
    0.7350    0.2130   49.0460 C   0  0  0  0  0  0  0  0  0  0  0  0
    3.3520    6.6610   52.9910 C   0  0  0  0  0  0  0  0  0  0  0  0
    1.3650    2.4560   49.7570 C   0  0  0  0  0  0  0  0  0  0  0  0
    1.5430    5.6910   51.7350 C   0  0  0  0  0  0  0  0  0  0  0  0
    2.8980    5.9540   51.8900 C   0  0  0  0  0  0  0  0  0  0  0  0
    2.4570    7.3490   53.7960 C   0  0  0  0  0  0  0  0  0  0  0  0
    1.1400    1.0920   50.0520 C   0  0  0  0  0  0  0  0  0  0  0  0
    1.7830    3.3950   50.7850 C   0  0  0  0  0  0  0  0  0  0  0  0
    5.7970   11.2780   52.6700 C   0  0  0  0  0  0  0  0  0  0  0  0
    4.3620   11.5150   53.0770 C   0  0  0  0  0  0  0  0  0  0  0  0
    6.3500   10.4490   53.8090 C   0  0  0  0  0  0  0  0  0  0  0  0
    3.6620   10.1420   53.1540 C   0  0  0  0  0  0  0  0  0  0  0  0
    5.5660    9.1880   54.2220 C   0  0  0  0  0  0  0  0  0  0  0  0
    3.6160    5.9090   49.5420 C   0  0  0  0  0  0  0  0  0  0  0  0
    4.1320    9.4420   54.3320 N   0  0  0  0  0  0  0  0  0  0  0  0
    1.1450    4.6460   50.8570 N   0  0  0  0  0  0  0  0  0  0  0  0
    2.6570    3.1160   51.6000 O   0  0  0  0  0  0  0  0  0  0  0  0
    2.0430    9.0930   55.6990 O   0  0  0  0  0  0  0  0  0  0  0  0
    3.8960    7.5730   55.9970 O   0  0  0  0  0  0  0  0  0  0  0  0
    3.7860    5.5570   50.9300 O   0  0  0  0  0  0  0  0  0  0  0  0
    3.1230    8.3800   55.1120 S   0  0  0  0  0  0  0  0  0  0  0  0
    1.3120    0.4450   51.6620 Cl  0  0  0  0  0  0  0  0  0  0  0  0
  1  2  2  0
  1  3  1  0
  2  6  1  0
  3  8  2  0
  4  5  2  0
  4  9  1  0
  5 11  1  0
  6 12  2  0
  7 10  1  0
  7 11  2  0
  8 12  1  0
  8 13  1  0
  9 10  2  0
  9 21  1  0
 10 25  1  0
 11 26  1  0
 12 27  1  0
 13 21  1  0
 13 22  2  0
 14 15  1  0
 14 16  1  0
 15 17  1  0
 16 18  1  0
 17 20  1  0
 18 20  1  0
 19 25  1  0
 20 26  1  0
 23 26  2  0
 24 26  2  0
M  END
>  <washed_aromatic_smiles>  (198) 
COc1cc(ccc1NC(=O)c2ccccc2Cl)S(=O)(=O)N3CCCCC3

>  <name>  (198) 
neg263163

$$$$
neg237242
     RDKit          3D

 28 31  0  0  0  0  0  0  0  0999 V2000
    6.3370   13.1450   59.6330 C   0  0  0  0  0  0  0  0  0  0  0  0
    6.2050   14.2010   58.7250 C   0  0  0  0  0  0  0  0  0  0  0  0
    5.8770   11.8910   59.2980 C   0  0  0  0  0  0  0  0  0  0  0  0
    5.6420   13.9650   57.5020 C   0  0  0  0  0  0  0  0  0  0  0  0
    0.4900    7.4410   52.7200 C   0  0  0  0  0  0  0  0  0  0  0  0
    2.5920    6.2810   52.8240 C   0  0  0  0  0  0  0  0  0  0  0  0
    0.8820    8.2600   53.7670 C   0  0  0  0  0  0  0  0  0  0  0  0
    3.0190    7.1310   53.8250 C   0  0  0  0  0  0  0  0  0  0  0  0
    1.6440    4.1800   49.1180 C   0  0  0  0  0  0  0  0  0  0  0  0
    3.1300    5.7940   49.9880 C   0  0  0  0  0  0  0  0  0  0  0  0
    4.8240   10.3670   57.6650 C   0  0  0  0  0  0  0  0  0  0  0  0
    5.0400   12.3810   55.7210 C   0  0  0  0  0  0  0  0  0  0  0  0
    2.6340    3.7970   48.2280 C   0  0  0  0  0  0  0  0  0  0  0  0
    4.0970    5.2900   49.1570 C   0  0  0  0  0  0  0  0  0  0  0  0
    5.3410   11.6290   58.0200 C   0  0  0  0  0  0  0  0  0  0  0  0
    5.3340   12.6660   57.0690 C   0  0  0  0  0  0  0  0  0  0  0  0
    4.4230   10.1170   56.3690 C   0  0  0  0  0  0  0  0  0  0  0  0
    1.3420    6.4560   52.2320 C   0  0  0  0  0  0  0  0  0  0  0  0
    1.8960    5.1780   50.0510 C   0  0  0  0  0  0  0  0  0  0  0  0
    2.1590    8.1130   54.3040 C   0  0  0  0  0  0  0  0  0  0  0  0
    4.6590   11.1120   55.3750 C   0  0  0  0  0  0  0  0  0  0  0  0
    3.7240    8.8880   56.0640 C   0  0  0  0  0  0  0  0  0  0  0  0
    5.4090    9.9320   53.3790 C   0  0  0  0  0  0  0  0  0  0  0  0
    0.8740    5.5930   51.0810 C   0  0  0  0  0  0  0  0  0  0  0  0
    3.8480    4.3240   48.2710 N   0  0  0  0  0  0  0  0  0  0  0  0
    2.5860    9.0160   55.2920 N   0  0  0  0  0  0  0  0  0  0  0  0
    4.0690    7.7920   56.4950 O   0  0  0  0  0  0  0  0  0  0  0  0
    4.5160   10.8490   54.0380 O   0  0  0  0  0  0  0  0  0  0  0  0
  1  2  2  0
  1  3  1  0
  2  4  1  0
  3 15  2  0
  4 16  2  0
  5  7  2  0
  5 18  1  0
  6  8  1  0
  6 18  2  0
  7 20  1  0
  8 20  2  0
  9 13  2  0
  9 19  1  0
 10 14  1  0
 10 19  2  0
 11 15  1  0
 11 17  2  0
 12 16  1  0
 12 21  2  0
 13 25  1  0
 14 25  2  0
 15 16  1  0
 17 21  1  0
 17 22  1  0
 18 24  1  0
 19 24  1  0
 20 26  1  0
 21 28  1  0
 22 26  1  0
 22 27  2  0
 23 28  1  0
M  END
>  <washed_aromatic_smiles>  (199) 
COc1cc2ccccc2cc1C(=O)Nc3ccc(cc3)Cc4ccncc4

>  <name>  (199) 
neg237242

$$$$
neg5480
     RDKit          3D

 26 27  0  0  0  0  0  0  0  0999 V2000
    1.1630   -0.3840   53.2770 C   0  0  0  0  0  0  0  0  0  0  0  0
    2.4660    0.0620   53.4390 C   0  0  0  0  0  0  0  0  0  0  0  0
    0.3720    0.1180   52.2460 C   0  0  0  0  0  0  0  0  0  0  0  0
    2.9670    1.0220   52.5720 C   0  0  0  0  0  0  0  0  0  0  0  0
    0.8740    1.0620   51.3740 C   0  0  0  0  0  0  0  0  0  0  0  0
    6.2400    8.8120   54.9590 C   0  0  0  0  0  0  0  0  0  0  0  0
    5.7980    9.6500   53.9600 C   0  0  0  0  0  0  0  0  0  0  0  0
    4.0180    8.6500   55.8920 C   0  0  0  0  0  0  0  0  0  0  0  0
    3.5460    9.2770   54.7400 C   0  0  0  0  0  0  0  0  0  0  0  0
    2.1650    1.5260   51.5490 C   0  0  0  0  0  0  0  0  0  0  0  0
    5.3860    8.4280   55.9980 C   0  0  0  0  0  0  0  0  0  0  0  0
    4.4570    9.9710   53.9280 C   0  0  0  0  0  0  0  0  0  0  0  0
    2.2700    8.8820   54.2200 C   0  0  0  0  0  0  0  0  0  0  0  0
    2.2620    8.3140   52.9940 C   0  0  0  0  0  0  0  0  0  0  0  0
    1.1720    7.5930   52.4280 C   0  0  0  0  0  0  0  0  0  0  0  0
    1.4140    4.6670   50.2140 C   0  0  0  0  0  0  0  0  0  0  0  0
    5.2030    7.2720   58.2180 C   0  0  0  0  0  0  0  0  0  0  0  0
    4.7680   12.2090   53.0820 C   0  0  0  0  0  0  0  0  0  0  0  0
    2.6700    2.6170   50.6720 C   0  0  0  0  0  0  0  0  0  0  0  0
    0.6870    5.7570   50.9510 C   0  0  0  0  0  0  0  0  0  0  0  0
    2.1160    3.8910   51.0320 N   0  0  0  0  0  0  0  0  0  0  0  0
    0.0080    7.6590   52.7820 O   0  0  0  0  0  0  0  0  0  0  0  0
    1.3140    4.4710   49.0040 O   0  0  0  0  0  0  0  0  0  0  0  0
    5.9410    7.8240   57.1110 O   0  0  0  0  0  0  0  0  0  0  0  0
    4.0420   10.9540   53.0860 O   0  0  0  0  0  0  0  0  0  0  0  0
    1.5640    6.7210   51.4920 O   0  0  0  0  0  0  0  0  0  0  0  0
  1  2  2  0
  1  3  1  0
  2  4  1  0
  3  5  2  0
  4 10  2  0
  5 10  1  0
  6  7  2  0
  6 11  1  0
  7 12  1  0
  8  9  1  0
  8 11  2  0
  9 12  2  0
  9 13  1  0
 10 19  1  0
 11 24  1  0
 12 25  1  0
 13 14  2  0
 14 15  1  0
 15 22  2  0
 15 26  1  0
 16 20  1  0
 16 21  1  0
 16 23  2  0
 17 24  1  0
 18 25  1  0
 19 21  1  0
 20 26  1  0
M  END
>  <washed_aromatic_smiles>  (200) 
COc1ccc(c(c1)/C=C/C(=O)OCC(=O)NCc2ccccc2)OC

>  <name>  (200) 
neg5480

$$$$
neg98734
     RDKit          3D

 26 28  0  0  0  0  0  0  0  0999 V2000
    5.9230    0.2220   58.7280 C   0  0  0  0  0  0  0  0  0  0  0  0
    4.9870    1.1850   58.3750 C   0  0  0  0  0  0  0  0  0  0  0  0
    6.1200   -0.8850   57.9120 C   0  0  0  0  0  0  0  0  0  0  0  0
    4.2200    1.0220   57.2280 C   0  0  0  0  0  0  0  0  0  0  0  0
    5.3530   -1.0460   56.7630 C   0  0  0  0  0  0  0  0  0  0  0  0
    2.0560    4.6140   48.9010 C   0  0  0  0  0  0  0  0  0  0  0  0
    1.3150    3.9750   47.9260 C   0  0  0  0  0  0  0  0  0  0  0  0
    1.9990    2.6020   50.2280 C   0  0  0  0  0  0  0  0  0  0  0  0
    4.3770   -0.1080   56.4170 C   0  0  0  0  0  0  0  0  0  0  0  0
    1.2740    1.9280   49.2310 C   0  0  0  0  0  0  0  0  0  0  0  0
    2.3410    3.9390   50.0770 C   0  0  0  0  0  0  0  0  0  0  0  0
    0.9320    2.6450   48.0810 C   0  0  0  0  0  0  0  0  0  0  0  0
    2.9010    0.6900   54.3620 C   0  0  0  0  0  0  0  0  0  0  0  0
    2.9780   -0.5790   52.2440 C   0  0  0  0  0  0  0  0  0  0  0  0
    0.9420    0.2570   53.1150 C   0  0  0  0  0  0  0  0  0  0  0  0
    2.4700   -0.4510   50.8110 C   0  0  0  0  0  0  0  0  0  0  0  0
    0.3230    0.4780   51.7370 C   0  0  0  0  0  0  0  0  0  0  0  0
    2.7740    6.0070   51.3630 C   0  0  0  0  0  0  0  0  0  0  0  0
    0.6850    1.1830   46.0970 C   0  0  0  0  0  0  0  0  0  0  0  0
    3.4630   -0.4230   55.2250 C   0  0  0  0  0  0  0  0  0  0  0  0
    0.7750    0.4840   49.3590 C   0  0  0  0  0  0  0  0  0  0  0  0
    2.3750    0.3510   53.1710 N   0  0  0  0  0  0  0  0  0  0  0  0
    1.0250   -0.2020   50.6270 N   0  0  0  0  0  0  0  0  0  0  0  0
    2.6120    1.7720   54.8520 O   0  0  0  0  0  0  0  0  0  0  0  0
    2.9160    4.5830   51.1460 O   0  0  0  0  0  0  0  0  0  0  0  0
    0.1420    2.0740   47.0970 O   0  0  0  0  0  0  0  0  0  0  0  0
  1  2  2  0
  1  3  1  0
  2  4  1  0
  3  5  2  0
  4  9  2  0
  5  9  1  0
  6  7  2  0
  6 11  1  0
  7 12  1  0
  8 10  1  0
  8 11  2  0
  9 20  1  0
 10 12  2  0
 10 21  1  0
 11 25  1  0
 12 26  1  0
 13 20  1  0
 13 22  1  0
 13 24  2  0
 14 16  1  0
 14 22  1  0
 15 17  1  0
 15 22  1  0
 16 23  1  0
 17 23  1  0
 18 25  1  0
 19 26  1  0
 21 23  1  0
M  END
>  <washed_aromatic_smiles>  (201) 
COc1ccc(c(c1)CN2CCN(CC2)C(=O)Cc3ccccc3)OC

>  <name>  (201) 
neg98734

$$$$
neg149499
     RDKit          3D

 28 31  0  0  0  0  0  0  0  0999 V2000
   -0.3540    0.1360   49.0080 C   0  0  0  0  0  0  0  0  0  0  0  0
   -0.1500    0.3680   50.3840 C   0  0  0  0  0  0  0  0  0  0  0  0
    2.7240    3.6910   47.9500 C   0  0  0  0  0  0  0  0  0  0  0  0
    0.2560    0.9400   48.0830 C   0  0  0  0  0  0  0  0  0  0  0  0
    0.7050    1.3470   50.8090 C   0  0  0  0  0  0  0  0  0  0  0  0
    1.7460    2.8140   47.5630 C   0  0  0  0  0  0  0  0  0  0  0  0
    2.9530    3.9390   49.2990 C   0  0  0  0  0  0  0  0  0  0  0  0
    5.2380   10.1500   56.6250 C   0  0  0  0  0  0  0  0  0  0  0  0
    5.2640   10.8140   55.4080 C   0  0  0  0  0  0  0  0  0  0  0  0
    3.4570    8.7400   55.8010 C   0  0  0  0  0  0  0  0  0  0  0  0
    1.0980    1.9960   48.5040 C   0  0  0  0  0  0  0  0  0  0  0  0
    1.3650    2.1900   49.8750 C   0  0  0  0  0  0  0  0  0  0  0  0
    2.2840    3.2130   50.2420 C   0  0  0  0  0  0  0  0  0  0  0  0
    3.4590    9.3970   54.5730 C   0  0  0  0  0  0  0  0  0  0  0  0
    4.3600    9.0860   56.8010 C   0  0  0  0  0  0  0  0  0  0  0  0
    4.3940   10.4270   54.3840 C   0  0  0  0  0  0  0  0  0  0  0  0
    3.6830    5.5690   52.5760 C   0  0  0  0  0  0  0  0  0  0  0  0
    1.5140    5.8660   51.4940 C   0  0  0  0  0  0  0  0  0  0  0  0
    3.4790    6.8360   53.3960 C   0  0  0  0  0  0  0  0  0  0  0  0
    1.3170    7.1520   52.3380 C   0  0  0  0  0  0  0  0  0  0  0  0
    5.4090    8.3890   58.9550 C   0  0  0  0  0  0  0  0  0  0  0  0
    4.7820   12.5120   53.1390 C   0  0  0  0  0  0  0  0  0  0  0  0
    2.6180    3.4770   51.6610 C   0  0  0  0  0  0  0  0  0  0  0  0
    2.3950    9.0240   53.5260 C   0  0  0  0  0  0  0  0  0  0  0  0
    2.4260    4.8890   52.1880 N   0  0  0  0  0  0  0  0  0  0  0  0
    2.6090    7.7960   52.7220 N   0  0  0  0  0  0  0  0  0  0  0  0
    4.3620    8.3350   57.9570 O   0  0  0  0  0  0  0  0  0  0  0  0
    4.4100   11.1150   53.1930 O   0  0  0  0  0  0  0  0  0  0  0  0
  1  2  2  0
  1  4  1  0
  2  5  1  0
  3  6  2  0
  3  7  1  0
  4 11  2  0
  5 12  2  0
  6 11  1  0
  7 13  2  0
  8  9  2  0
  8 15  1  0
  9 16  1  0
 10 14  1  0
 10 15  2  0
 11 12  1  0
 12 13  1  0
 13 23  1  0
 14 16  2  0
 14 24  1  0
 15 27  1  0
 16 28  1  0
 17 19  1  0
 17 25  1  0
 18 20  1  0
 18 25  1  0
 19 26  1  0
 20 26  1  0
 21 27  1  0
 22 28  1  0
 23 25  1  0
 24 26  1  0
M  CHG  1  25   1
M  END
>  <washed_aromatic_smiles>  (202) 
COc1ccc(c(c1)CN2CCN(CC2)Cc3cccc4c3cccc4)OC

>  <name>  (202) 
neg149499

$$$$
neg263816
     RDKit          3D

 30 33  0  0  0  0  0  0  0  0999 V2000
    1.5970    8.1700   54.3530 C   0  0  0  0  0  0  0  0  0  0  0  0
    0.3440    8.1690   53.7120 C   0  0  0  0  0  0  0  0  0  0  0  0
    2.6120    7.3830   53.8700 C   0  0  0  0  0  0  0  0  0  0  0  0
    0.1320    7.3820   52.6040 C   0  0  0  0  0  0  0  0  0  0  0  0
    3.4670    5.9000   52.1000 C   0  0  0  0  0  0  0  0  0  0  0  0
    2.2330   -0.8940   55.1550 C   0  0  0  0  0  0  0  0  0  0  0  0
    3.7320    0.8590   54.9190 C   0  0  0  0  0  0  0  0  0  0  0  0
    3.3330    5.4190   50.8230 C   0  0  0  0  0  0  0  0  0  0  0  0
    1.7970   -0.7380   53.8590 C   0  0  0  0  0  0  0  0  0  0  0  0
    3.3850    0.9850   53.5760 C   0  0  0  0  0  0  0  0  0  0  0  0
    1.0130    5.9430   50.8100 C   0  0  0  0  0  0  0  0  0  0  0  0
    2.4160    6.6070   52.7010 C   0  0  0  0  0  0  0  0  0  0  0  0
    1.1700    6.6150   52.0490 C   0  0  0  0  0  0  0  0  0  0  0  0
    3.3730   -0.2510   55.6070 C   0  0  0  0  0  0  0  0  0  0  0  0
    2.5330    0.0470   53.0160 C   0  0  0  0  0  0  0  0  0  0  0  0
    2.0910    5.3890   50.1670 C   0  0  0  0  0  0  0  0  0  0  0  0
    0.6530    0.7450   48.2860 C   0  0  0  0  0  0  0  0  0  0  0  0
    0.2900    0.4120   49.7530 C   0  0  0  0  0  0  0  0  0  0  0  0
    0.8740    2.2270   47.8900 C   0  0  0  0  0  0  0  0  0  0  0  0
    1.6050    2.0850   50.9250 C   0  0  0  0  0  0  0  0  0  0  0  0
    2.4590    2.4380   49.7460 C   0  0  0  0  0  0  0  0  0  0  0  0
    4.3550   -0.6300   56.7250 C   0  0  0  0  0  0  0  0  0  0  0  0
    1.2760    0.7170   50.8090 N   0  0  0  0  0  0  0  0  0  0  0  0
    1.6310    3.0860   48.8230 N   0  0  0  0  0  0  0  0  0  0  0  0
    3.7380    0.0640   50.7490 O   0  0  0  0  0  0  0  0  0  0  0  0
    2.0770   -1.6410   51.0860 O   0  0  0  0  0  0  0  0  0  0  0  0
    1.0070    5.1910   47.7340 O   0  0  0  0  0  0  0  0  0  0  0  0
    3.3560    4.6620   47.9920 O   0  0  0  0  0  0  0  0  0  0  0  0
    2.4720   -0.3010   51.2880 S   0  0  0  0  0  0  0  0  0  0  0  0
    2.0340    4.6310   48.5210 S   0  0  0  0  0  0  0  0  0  0  0  0
  1  2  2  0
  1  3  1  0
  2  4  1  0
  3 12  2  0
  4 13  2  0
  5  8  2  0
  5 12  1  0
  6  9  2  0
  6 14  1  0
  7 10  1  0
  7 14  2  0
  8 16  1  0
  9 15  1  0
 10 15  2  0
 11 13  1  0
 11 16  2  0
 12 13  1  0
 14 22  1  0
 15 29  1  0
 16 30  1  0
 17 18  1  0
 17 19  1  0
 18 23  1  0
 19 24  1  0
 20 21  1  0
 20 23  1  0
 21 24  1  0
 23 29  1  0
 24 30  1  0
 25 29  2  0
 26 29  2  0
 27 30  2  0
 28 30  2  0
M  END
>  <washed_aromatic_smiles>  (203) 
Cc1ccc(cc1)S(=O)(=O)N2CCCN(CC2)S(=O)(=O)c3ccc4ccccc4c3

>  <name>  (203) 
neg263816

$$$$
neg24501
     RDKit          3D

 30 32  0  0  0  0  0  0  0  0999 V2000
    4.8750    9.1200   56.2360 C   0  0  0  0  0  0  0  0  0  0  0  0
    3.7240    9.5330   56.9040 C   0  0  0  0  0  0  0  0  0  0  0  0
    4.7700    8.4060   55.0500 C   0  0  0  0  0  0  0  0  0  0  0  0
    2.7180   -1.3290   52.8770 C   0  0  0  0  0  0  0  0  0  0  0  0
    1.4870    0.5210   53.7580 C   0  0  0  0  0  0  0  0  0  0  0  0
    2.1520   -1.1350   51.6370 C   0  0  0  0  0  0  0  0  0  0  0  0
    0.7990    0.6160   52.5650 C   0  0  0  0  0  0  0  0  0  0  0  0
    2.4730    9.2530   56.3720 C   0  0  0  0  0  0  0  0  0  0  0  0
    3.5150    8.0830   54.5190 C   0  0  0  0  0  0  0  0  0  0  0  0
    2.4750   -0.4340   53.9030 C   0  0  0  0  0  0  0  0  0  0  0  0
    1.2310   -0.1270   51.4780 C   0  0  0  0  0  0  0  0  0  0  0  0
    2.3640    8.5700   55.1570 C   0  0  0  0  0  0  0  0  0  0  0  0
    3.4050    7.2010   53.3740 C   0  0  0  0  0  0  0  0  0  0  0  0
    2.8140    5.1660   49.3180 C   0  0  0  0  0  0  0  0  0  0  0  0
    1.6660    3.7120   50.8590 C   0  0  0  0  0  0  0  0  0  0  0  0
    1.2120    3.6130   48.4820 C   0  0  0  0  0  0  0  0  0  0  0  0
    2.4600    2.4250   50.7400 C   0  0  0  0  0  0  0  0  0  0  0  0
    1.9710    2.3210   48.3820 C   0  0  0  0  0  0  0  0  0  0  0  0
    3.2370   -0.5240   55.1810 C   0  0  0  0  0  0  0  0  0  0  0  0
    3.5680    5.7890   50.4630 C   0  0  0  0  0  0  0  0  0  0  0  0
    2.7980    7.0150   50.9230 C   0  0  0  0  0  0  0  0  0  0  0  0
    1.7300    4.4160   49.5790 N   0  0  0  0  0  0  0  0  0  0  0  0
    1.9840    1.5620   49.6210 N   0  0  0  0  0  0  0  0  0  0  0  0
    3.0150    7.7310   52.1830 N   0  0  0  0  0  0  0  0  0  0  0  0
    3.6470    6.0070   53.4370 O   0  0  0  0  0  0  0  0  0  0  0  0
    3.2510    5.3560   48.1890 O   0  0  0  0  0  0  0  0  0  0  0  0
    0.9320   -0.6530   48.9380 O   0  0  0  0  0  0  0  0  0  0  0  0
   -0.4740    1.0140   49.9690 O   0  0  0  0  0  0  0  0  0  0  0  0
    0.8000    0.4150   49.8740 S   0  0  0  0  0  0  0  0  0  0  0  0
    0.7880    8.2980   54.4560 Cl  0  0  0  0  0  0  0  0  0  0  0  0
  1  2  2  0
  1  3  1  0
  2  8  1  0
  3  9  2  0
  4  6  2  0
  4 10  1  0
  5  7  1  0
  5 10  2  0
  6 11  1  0
  7 11  2  0
  8 12  2  0
  9 12  1  0
  9 13  1  0
 10 19  1  0
 11 29  1  0
 12 30  1  0
 13 24  1  0
 13 25  2  0
 14 20  1  0
 14 22  1  0
 14 26  2  0
 15 17  1  0
 15 22  1  0
 16 18  1  0
 16 22  1  0
 17 23  1  0
 18 23  1  0
 20 21  1  0
 21 24  1  0
 23 29  1  0
 27 29  2  0
 28 29  2  0
M  END
>  <washed_aromatic_smiles>  (204) 
Cc1ccc(cc1)S(=O)(=O)N2CCN(CC2)C(=O)CCNC(=O)c3ccccc3Cl

>  <name>  (204) 
neg24501

$$$$
neg304453
     RDKit          3D

 30 32  0  0  0  0  0  0  0  0999 V2000
    5.2370   13.1110   55.2940 C   0  0  0  0  0  0  0  0  0  0  0  0
    6.2760   12.2170   55.1640 C   0  0  0  0  0  0  0  0  0  0  0  0
    4.2130   13.0520   54.3790 C   0  0  0  0  0  0  0  0  0  0  0  0
    1.4370   -0.2320   53.2710 C   0  0  0  0  0  0  0  0  0  0  0  0
    3.5280    0.4050   52.3040 C   0  0  0  0  0  0  0  0  0  0  0  0
    6.2450   11.2120   54.1960 C   0  0  0  0  0  0  0  0  0  0  0  0
    4.2600   12.1570   53.3170 C   0  0  0  0  0  0  0  0  0  0  0  0
    0.8470   -0.1100   52.0260 C   0  0  0  0  0  0  0  0  0  0  0  0
    2.9690    0.3890   51.0400 C   0  0  0  0  0  0  0  0  0  0  0  0
    2.7740    0.0760   53.4330 C   0  0  0  0  0  0  0  0  0  0  0  0
    5.1930   11.1610   53.3300 C   0  0  0  0  0  0  0  0  0  0  0  0
    1.6060    0.1920   50.8980 C   0  0  0  0  0  0  0  0  0  0  0  0
    2.9570    6.1640   50.2040 C   0  0  0  0  0  0  0  0  0  0  0  0
    3.1510    8.3720   53.1710 C   0  0  0  0  0  0  0  0  0  0  0  0
    1.3140    4.4720   50.6430 C   0  0  0  0  0  0  0  0  0  0  0  0
    2.4940    4.3910   48.5400 C   0  0  0  0  0  0  0  0  0  0  0  0
    1.3600    2.9660   50.6820 C   0  0  0  0  0  0  0  0  0  0  0  0
    2.2310    2.8610   48.4650 C   0  0  0  0  0  0  0  0  0  0  0  0
    3.3180    0.0780   54.8430 C   0  0  0  0  0  0  0  0  0  0  0  0
    2.4770    6.8200   51.5020 C   0  0  0  0  0  0  0  0  0  0  0  0
    4.4270    9.0220   53.6180 C   0  0  0  0  0  0  0  0  0  0  0  0
    2.4320    4.9670   49.8990 N   0  0  0  0  0  0  0  0  0  0  0  0
    1.2010    2.3440   49.3770 N   0  0  0  0  0  0  0  0  0  0  0  0
    3.7030    6.7180   49.4050 O   0  0  0  0  0  0  0  0  0  0  0  0
    2.2560    8.0240   53.9460 O   0  0  0  0  0  0  0  0  0  0  0  0
    1.1970    0.0360   48.2710 O   0  0  0  0  0  0  0  0  0  0  0  0
   -0.6280    0.6000   49.7290 O   0  0  0  0  0  0  0  0  0  0  0  0
    4.9460   10.0170   52.6730 O   0  0  0  0  0  0  0  0  0  0  0  0
    3.1390    8.0100   51.8910 O   0  0  0  0  0  0  0  0  0  0  0  0
    0.7510    0.7270   49.4290 S   0  0  0  0  0  0  0  0  0  0  0  0
  1  2  2  0
  1  3  1  0
  2  6  1  0
  3  7  2  0
  4  8  2  0
  4 10  1  0
  5  9  1  0
  5 10  2  0
  6 11  2  0
  7 11  1  0
  8 12  1  0
  9 12  2  0
 10 19  1  0
 11 28  1  0
 12 30  1  0
 13 20  1  0
 13 22  1  0
 13 24  2  0
 14 21  1  0
 14 25  2  0
 14 29  1  0
 15 17  1  0
 15 22  1  0
 16 18  1  0
 16 22  1  0
 17 23  1  0
 18 23  1  0
 20 29  1  0
 21 28  1  0
 23 30  1  0
 26 30  2  0
 27 30  2  0
M  END
>  <washed_aromatic_smiles>  (205) 
Cc1ccc(cc1)S(=O)(=O)N2CCN(CC2)C(=O)COC(=O)COc3ccccc3

>  <name>  (205) 
neg304453

$$$$
neg16221
     RDKit          3D

 27 30  0  0  0  0  0  0  0  0999 V2000
    0.2550    0.6030   48.1490 C   0  0  0  0  0  0  0  0  0  0  0  0
    0.4260   -0.6300   48.8100 C   0  0  0  0  0  0  0  0  0  0  0  0
    0.8840    1.7340   48.6250 C   0  0  0  0  0  0  0  0  0  0  0  0
    3.3260    8.9590   57.1580 C   0  0  0  0  0  0  0  0  0  0  0  0
    5.5320    8.5270   56.3340 C   0  0  0  0  0  0  0  0  0  0  0  0
    1.2290   -0.7370   49.9290 C   0  0  0  0  0  0  0  0  0  0  0  0
    2.8240    8.9030   55.8660 C   0  0  0  0  0  0  0  0  0  0  0  0
    5.0380    8.4890   55.0360 C   0  0  0  0  0  0  0  0  0  0  0  0
    1.6820    1.6300   49.7810 C   0  0  0  0  0  0  0  0  0  0  0  0
    4.6830    8.7670   57.4040 C   0  0  0  0  0  0  0  0  0  0  0  0
    1.8060    0.4280   50.4180 C   0  0  0  0  0  0  0  0  0  0  0  0
    3.6810    8.6870   54.7930 C   0  0  0  0  0  0  0  0  0  0  0  0
    2.4730    2.5320   50.5050 C   0  0  0  0  0  0  0  0  0  0  0  0
    2.7400    3.8470   49.9890 C   0  0  0  0  0  0  0  0  0  0  0  0
    2.9270    4.9900   52.2920 C   0  0  0  0  0  0  0  0  0  0  0  0
    3.4570    6.1260   50.1970 C   0  0  0  0  0  0  0  0  0  0  0  0
    2.4140    6.3140   52.9120 C   0  0  0  0  0  0  0  0  0  0  0  0
    2.9910    7.3490   50.9580 C   0  0  0  0  0  0  0  0  0  0  0  0
    5.2520    8.8320   58.8030 C   0  0  0  0  0  0  0  0  0  0  0  0
    2.9940    1.9590   51.5730 N   0  0  0  0  0  0  0  0  0  0  0  0
    2.5840    0.6720   51.5160 N   0  0  0  0  0  0  0  0  0  0  0  0
    2.9330    4.9420   50.8070 N   0  0  0  0  0  0  0  0  0  0  0  0
    3.1650    7.3930   52.3870 N   0  0  0  0  0  0  0  0  0  0  0  0
    2.8180    4.0200   48.7660 O   0  0  0  0  0  0  0  0  0  0  0  0
    1.7680    9.3310   53.1250 O   0  0  0  0  0  0  0  0  0  0  0  0
    4.0770    9.7360   52.5050 O   0  0  0  0  0  0  0  0  0  0  0  0
    3.1190    8.8820   53.1120 S   0  0  0  0  0  0  0  0  0  0  0  0
  1  2  2  0
  1  3  1  0
  2  6  1  0
  3  9  2  0
  4  7  2  0
  4 10  1  0
  5  8  1  0
  5 10  2  0
  6 11  2  0
  7 12  1  0
  8 12  2  0
  9 11  1  0
  9 13  1  0
 10 19  1  0
 11 21  1  0
 12 27  1  0
 13 14  1  0
 13 20  2  0
 14 22  1  0
 14 24  2  0
 15 17  1  0
 15 22  1  0
 16 18  1  0
 16 22  1  0
 17 23  1  0
 18 23  1  0
 20 21  1  0
 23 27  1  0
 25 27  2  0
 26 27  2  0
M  END
>  <washed_aromatic_smiles>  (206) 
Cc1ccc(cc1)S(=O)(=O)N2CCN(CC2)C(=O)c3c4ccccc4[nH]n3

>  <name>  (206) 
neg16221

$$$$
neg29618
     RDKit          3D

 29 32  0  0  0  0  0  0  0  0999 V2000
    0.9110    8.7250   55.5950 C   0  0  0  0  0  0  0  0  0  0  0  0
    5.3330   10.4690   58.8520 C   0  0  0  0  0  0  0  0  0  0  0  0
    5.6700    9.1080   58.8830 C   0  0  0  0  0  0  0  0  0  0  0  0
    1.3710    8.5670   54.3050 C   0  0  0  0  0  0  0  0  0  0  0  0
   -0.2510    0.4940   50.3220 C   0  0  0  0  0  0  0  0  0  0  0  0
    0.0870    1.0440   47.9910 C   0  0  0  0  0  0  0  0  0  0  0  0
    1.7990    9.0440   56.6250 C   0  0  0  0  0  0  0  0  0  0  0  0
    0.6850    1.4460   50.6820 C   0  0  0  0  0  0  0  0  0  0  0  0
    0.9540    2.0480   48.3560 C   0  0  0  0  0  0  0  0  0  0  0  0
    3.6400    8.9670   55.0610 C   0  0  0  0  0  0  0  0  0  0  0  0
    4.3550   10.6370   57.9230 C   0  0  0  0  0  0  0  0  0  0  0  0
    4.8920    8.4660   57.9710 C   0  0  0  0  0  0  0  0  0  0  0  0
    2.7380    8.6650   54.0430 C   0  0  0  0  0  0  0  0  0  0  0  0
   -0.5450    0.3000   48.9780 C   0  0  0  0  0  0  0  0  0  0  0  0
    3.1560    9.1480   56.3440 C   0  0  0  0  0  0  0  0  0  0  0  0
    1.2750    2.2350   49.6990 C   0  0  0  0  0  0  0  0  0  0  0  0
    3.2290    8.4340   52.7140 C   0  0  0  0  0  0  0  0  0  0  0  0
    2.1750    6.1740   52.6750 C   0  0  0  0  0  0  0  0  0  0  0  0
    2.9370    7.0650   50.6680 C   0  0  0  0  0  0  0  0  0  0  0  0
    2.6980    4.8260   52.1580 C   0  0  0  0  0  0  0  0  0  0  0  0
    3.2900    5.7150   50.0760 C   0  0  0  0  0  0  0  0  0  0  0  0
   -1.7200   -0.5090   48.5510 C   0  0  0  0  0  0  0  0  0  0  0  0
    4.0820    9.4070   57.3810 N   0  0  0  0  0  0  0  0  0  0  0  0
    2.9430    7.2340   52.0880 N   0  0  0  0  0  0  0  0  0  0  0  0
    2.5140    4.6440   50.7110 N   0  0  0  0  0  0  0  0  0  0  0  0
    3.9270    9.2750   52.1780 O   0  0  0  0  0  0  0  0  0  0  0  0
    3.3910    2.3170   51.0250 O   0  0  0  0  0  0  0  0  0  0  0  0
    3.3450    3.3180   48.7730 O   0  0  0  0  0  0  0  0  0  0  0  0
    2.7370    3.1340   50.0540 S   0  0  0  0  0  0  0  0  0  0  0  0
  1  4  2  0
  1  7  1  0
  2  3  1  0
  2 11  2  0
  3 12  2  0
  4 13  1  0
  5  8  2  0
  5 14  1  0
  6  9  1  0
  6 14  2  0
  7 15  2  0
  8 16  1  0
  9 16  2  0
 10 13  2  0
 10 15  1  0
 11 23  1  0
 12 23  1  0
 13 17  1  0
 14 22  1  0
 15 23  1  0
 16 29  1  0
 17 24  1  0
 17 26  2  0
 18 20  1  0
 18 24  1  0
 19 21  1  0
 19 24  1  0
 20 25  1  0
 21 25  1  0
 25 29  1  0
 27 29  2  0
 28 29  2  0
M  END
>  <washed_aromatic_smiles>  (207) 
Cc1ccc(cc1)S(=O)(=O)N2CCN(CC2)C(=O)c3cccc(c3)n4cccc4

>  <name>  (207) 
neg29618

$$$$
neg319457
     RDKit          3D

 29 32  0  0  0  0  0  0  0  0999 V2000
    0.9470   -0.6830   47.9640 C   0  0  0  0  0  0  0  0  0  0  0  0
    1.0410   -0.0290   46.7430 C   0  0  0  0  0  0  0  0  0  0  0  0
    0.6550    0.0220   49.1130 C   0  0  0  0  0  0  0  0  0  0  0  0
    0.9220    1.3430   46.6830 C   0  0  0  0  0  0  0  0  0  0  0  0
    0.6010    1.4010   49.0580 C   0  0  0  0  0  0  0  0  0  0  0  0
    4.8010   11.4060   54.0000 C   0  0  0  0  0  0  0  0  0  0  0  0
    4.4860   12.2430   56.2530 C   0  0  0  0  0  0  0  0  0  0  0  0
    4.2100   10.2210   54.3680 C   0  0  0  0  0  0  0  0  0  0  0  0
    3.8790   11.0690   56.6180 C   0  0  0  0  0  0  0  0  0  0  0  0
    4.8840   12.4140   54.9400 C   0  0  0  0  0  0  0  0  0  0  0  0
    0.8660    2.0760   47.8590 C   0  0  0  0  0  0  0  0  0  0  0  0
    3.7020   10.0800   55.6660 C   0  0  0  0  0  0  0  0  0  0  0  0
    3.3950    6.2080   49.5900 C   0  0  0  0  0  0  0  0  0  0  0  0
    2.2100    4.4920   51.2210 C   0  0  0  0  0  0  0  0  0  0  0  0
    2.7760    5.3740   48.4490 C   0  0  0  0  0  0  0  0  0  0  0  0
    2.3520    3.6190   50.0110 C   0  0  0  0  0  0  0  0  0  0  0  0
    1.5930    7.1480   52.5330 C   0  0  0  0  0  0  0  0  0  0  0  0
    3.6890    6.2480   53.1980 C   0  0  0  0  0  0  0  0  0  0  0  0
    1.6430    8.2220   53.6620 C   0  0  0  0  0  0  0  0  0  0  0  0
    3.6310    7.0630   54.4590 C   0  0  0  0  0  0  0  0  0  0  0  0
    3.0860    5.7330   51.0240 C   0  0  0  0  0  0  0  0  0  0  0  0
    5.4590   13.7070   54.6030 C   0  0  0  0  0  0  0  0  0  0  0  0
    1.2720    3.5300   47.7040 C   0  0  0  0  0  0  0  0  0  0  0  0
    2.9550    6.7700   52.0700 N   0  0  0  0  0  0  0  0  0  0  0  0
    1.7780    4.3360   48.8580 N   0  0  0  0  0  0  0  0  0  0  0  0
    2.4900    7.8150   54.8170 N   0  0  0  0  0  0  0  0  0  0  0  0
    3.6130    7.9860   57.0820 O   0  0  0  0  0  0  0  0  0  0  0  0
    1.5340    9.1640   56.7420 O   0  0  0  0  0  0  0  0  0  0  0  0
    2.7610    8.7070   56.1940 S   0  0  0  0  0  0  0  0  0  0  0  0
  1  2  2  0
  1  3  1  0
  2  4  1  0
  3  5  2  0
  4 11  2  0
  5 11  1  0
  6  8  2  0
  6 10  1  0
  7  9  1  0
  7 10  2  0
  8 12  1  0
  9 12  2  0
 10 22  1  0
 11 23  1  0
 12 29  1  0
 13 15  1  0
 13 21  1  0
 14 16  1  0
 14 21  1  0
 15 25  1  0
 16 25  1  0
 17 19  1  0
 17 24  1  0
 18 20  1  0
 18 24  1  0
 19 26  1  0
 20 26  1  0
 21 24  1  0
 23 25  1  0
 26 29  1  0
 27 29  2  0
 28 29  2  0
M  CHG  1  25   1
M  END
>  <washed_aromatic_smiles>  (208) 
Cc1ccc(cc1)S(=O)(=O)N2CCN(CC2)C3CCN(CC3)Cc4ccccc4

>  <name>  (208) 
neg319457

$$$$
neg80857
     RDKit          3D

 26 28  0  0  0  0  0  0  0  0999 V2000
    1.2880    8.0700   53.3540 C   0  0  0  0  0  0  0  0  0  0  0  0
    3.3520    7.2040   54.1640 C   0  0  0  0  0  0  0  0  0  0  0  0
    1.5030    7.4130   52.1440 C   0  0  0  0  0  0  0  0  0  0  0  0
    3.5530    6.5290   52.9630 C   0  0  0  0  0  0  0  0  0  0  0  0
    2.2500    8.0150   54.3520 C   0  0  0  0  0  0  0  0  0  0  0  0
    2.6950    6.7260   51.8790 C   0  0  0  0  0  0  0  0  0  0  0  0
    1.5320    0.3130   53.7030 C   0  0  0  0  0  0  0  0  0  0  0  0
    2.7100   -1.3300   52.5350 C   0  0  0  0  0  0  0  0  0  0  0  0
    1.2050    0.9400   52.3720 C   0  0  0  0  0  0  0  0  0  0  0  0
    2.6030   -0.6610   51.1590 C   0  0  0  0  0  0  0  0  0  0  0  0
    2.3360    4.4700   48.2820 C   0  0  0  0  0  0  0  0  0  0  0  0
    1.0610    4.7610   50.2360 C   0  0  0  0  0  0  0  0  0  0  0  0
    2.2780    2.9160   48.4570 C   0  0  0  0  0  0  0  0  0  0  0  0
    1.4440    3.3670   50.6740 C   0  0  0  0  0  0  0  0  0  0  0  0
    2.9140   -0.2730   53.6310 C   0  0  0  0  0  0  0  0  0  0  0  0
    2.1660    8.8290   55.6230 C   0  0  0  0  0  0  0  0  0  0  0  0
    3.2930   -0.6530   55.0530 C   0  0  0  0  0  0  0  0  0  0  0  0
    1.4420    0.2050   51.1320 N   0  0  0  0  0  0  0  0  0  0  0  0
    2.0960    5.2860   49.4820 N   0  0  0  0  0  0  0  0  0  0  0  0
    1.5120    2.4070   49.6010 N   0  0  0  0  0  0  0  0  0  0  0  0
    4.3710    5.4250   50.2730 O   0  0  0  0  0  0  0  0  0  0  0  0
    3.4430    7.3870   49.4000 O   0  0  0  0  0  0  0  0  0  0  0  0
    1.1700    0.0670   48.6130 O   0  0  0  0  0  0  0  0  0  0  0  0
   -0.5640    0.9890   49.9910 O   0  0  0  0  0  0  0  0  0  0  0  0
    3.2420    6.2250   50.1750 S   0  0  0  0  0  0  0  0  0  0  0  0
    0.8230    0.8590   49.7440 S   0  0  0  0  0  0  0  0  0  0  0  0
  1  3  2  0
  1  5  1  0
  2  4  1  0
  2  5  2  0
  3  6  1  0
  4  6  2  0
  5 16  1  0
  6 25  1  0
  7  9  1  0
  7 15  1  0
  8 10  1  0
  8 15  1  0
  9 18  1  0
 10 18  1  0
 11 13  1  0
 11 19  1  0
 12 14  1  0
 12 19  1  0
 13 20  1  0
 14 20  1  0
 15 17  1  0
 18 26  1  0
 19 25  1  0
 20 26  1  0
 21 25  2  0
 22 25  2  0
 23 26  2  0
 24 26  2  0
M  END
>  <washed_aromatic_smiles>  (209) 
Cc1ccc(cc1)S(=O)(=O)N2CCN(CC2)S(=O)(=O)N3CCC(CC3)C

>  <name>  (209) 
neg80857

$$$$
neg106058
     RDKit          3D

 28 29  0  0  0  0  0  0  0  0999 V2000
    2.9540    6.1620   50.3890 C   0  0  0  0  0  0  0  0  0  0  0  0
    1.1020    5.1520   51.4920 C   0  0  0  0  0  0  0  0  0  0  0  0
    2.8510    7.2360   51.2620 C   0  0  0  0  0  0  0  0  0  0  0  0
    1.0430    6.2020   52.4040 C   0  0  0  0  0  0  0  0  0  0  0  0
    2.0710    5.1030   50.4990 C   0  0  0  0  0  0  0  0  0  0  0  0
    1.9450    7.2520   52.3180 C   0  0  0  0  0  0  0  0  0  0  0  0
    4.4780    8.3020   53.6550 C   0  0  0  0  0  0  0  0  0  0  0  0
    3.1900    8.1010   55.6850 C   0  0  0  0  0  0  0  0  0  0  0  0
    5.9340    8.5360   54.1190 C   0  0  0  0  0  0  0  0  0  0  0  0
    4.3950    8.2950   56.6030 C   0  0  0  0  0  0  0  0  0  0  0  0
    6.5410   10.4430   52.9710 C   0  0  0  0  0  0  0  0  0  0  0  0
    5.2430    8.6130   58.7500 C   0  0  0  0  0  0  0  0  0  0  0  0
    6.1350   11.8600   53.0700 C   0  0  0  0  0  0  0  0  0  0  0  0
    5.2570   10.1170   58.9820 C   0  0  0  0  0  0  0  0  0  0  0  0
    4.5120   13.2080   53.6830 C   0  0  0  0  0  0  0  0  0  0  0  0
    5.6560   12.2150   58.1130 C   0  0  0  0  0  0  0  0  0  0  0  0
    4.1430   13.5170   55.1240 C   0  0  0  0  0  0  0  0  0  0  0  0
    5.6690   12.9750   56.8060 C   0  0  0  0  0  0  0  0  0  0  0  0
    2.1190    3.9510   49.5190 C   0  0  0  0  0  0  0  0  0  0  0  0
    3.2680    8.6770   54.3630 N   0  0  0  0  0  0  0  0  0  0  0  0
    1.9110    9.8230   52.5680 O   0  0  0  0  0  0  0  0  0  0  0  0
    0.7200    8.5550   54.2440 O   0  0  0  0  0  0  0  0  0  0  0  0
    6.2280    9.8860   54.2160 O   0  0  0  0  0  0  0  0  0  0  0  0
    4.1050    8.2930   57.9720 O   0  0  0  0  0  0  0  0  0  0  0  0
    4.7900   11.8880   53.3920 O   0  0  0  0  0  0  0  0  0  0  0  0
    5.6210   10.8340   57.8370 O   0  0  0  0  0  0  0  0  0  0  0  0
    4.5300   12.5670   56.0800 O   0  0  0  0  0  0  0  0  0  0  0  0
    1.8720    8.6890   53.4130 S   0  0  0  0  0  0  0  0  0  0  0  0
  1  3  2  0
  1  5  1  0
  2  4  1  0
  2  5  2  0
  3  6  1  0
  4  6  2  0
  5 19  1  0
  6 28  1  0
  7  9  1  0
  7 20  1  0
  8 10  1  0
  8 20  1  0
  9 23  1  0
 10 24  1  0
 11 13  1  0
 11 23  1  0
 12 14  1  0
 12 24  1  0
 13 25  1  0
 14 26  1  0
 15 17  1  0
 15 25  1  0
 16 18  1  0
 16 26  1  0
 17 27  1  0
 18 27  1  0
 20 28  1  0
 21 28  2  0
 22 28  2  0
M  END
>  <washed_aromatic_smiles>  (210) 
Cc1ccc(cc1)S(=O)(=O)N2CCOCCOCCOCCOCCOCC2

>  <name>  (210) 
neg106058

$$$$
neg255031
     RDKit          3D

 25 27  0  0  0  0  0  0  0  0999 V2000
    3.7080    1.0660   54.5230 C   0  0  0  0  0  0  0  0  0  0  0  0
    2.0300   -0.4840   54.6200 C   0  0  0  0  0  0  0  0  0  0  0  0
    3.8080    0.9980   53.1670 C   0  0  0  0  0  0  0  0  0  0  0  0
    2.3750   -0.8690   53.3070 C   0  0  0  0  0  0  0  0  0  0  0  0
    2.6850    0.6070   55.2270 C   0  0  0  0  0  0  0  0  0  0  0  0
    3.2700   -0.0910   52.5660 C   0  0  0  0  0  0  0  0  0  0  0  0
    2.2190    1.3830   49.5390 C   0  0  0  0  0  0  0  0  0  0  0  0
    0.7960    1.4580   51.4180 C   0  0  0  0  0  0  0  0  0  0  0  0
    0.0460    0.7800   49.2570 C   0  0  0  0  0  0  0  0  0  0  0  0
    1.8660    4.5040   50.4270 C   0  0  0  0  0  0  0  0  0  0  0  0
    3.1850    4.9600   48.5470 C   0  0  0  0  0  0  0  0  0  0  0  0
   -0.4570    1.0980   52.0480 C   0  0  0  0  0  0  0  0  0  0  0  0
   -1.1920    0.3480   50.0790 C   0  0  0  0  0  0  0  0  0  0  0  0
    2.5210    5.6530   51.2070 C   0  0  0  0  0  0  0  0  0  0  0  0
    3.8250    6.1350   49.2800 C   0  0  0  0  0  0  0  0  0  0  0  0
    2.6740    1.6080   56.4040 C   0  0  0  0  0  0  0  0  0  0  0  0
    2.4730    2.6720   48.7310 C   0  0  0  0  0  0  0  0  0  0  0  0
    2.9650    1.2090   50.5160 N   0  0  0  0  0  0  0  0  0  0  0  0
    0.9500    1.7390   49.9400 N   0  0  0  0  0  0  0  0  0  0  0  0
    2.8370    3.9110   49.4870 N   0  0  0  0  0  0  0  0  0  0  0  0
    2.9570   -1.2240   50.3290 O   0  0  0  0  0  0  0  0  0  0  0  0
    5.1180   -0.0830   50.6690 O   0  0  0  0  0  0  0  0  0  0  0  0
   -0.8860   -0.0520   51.3760 O   0  0  0  0  0  0  0  0  0  0  0  0
    3.0180    6.6470   50.3320 O   0  0  0  0  0  0  0  0  0  0  0  0
    3.7070   -0.1470   50.8620 S   0  0  0  0  0  0  0  0  0  0  0  0
  1  3  2  0
  1  5  1  0
  2  4  1  0
  2  5  2  0
  3  6  1  0
  4  6  2  0
  5 16  1  0
  6 25  1  0
  7 17  1  0
  7 18  2  0
  7 19  1  0
  8 12  1  0
  8 19  1  0
  9 13  1  0
  9 19  1  0
 10 14  1  0
 10 20  1  0
 11 15  1  0
 11 20  1  0
 12 23  1  0
 13 23  1  0
 14 24  1  0
 15 24  1  0
 17 20  1  0
 18 25  1  0
 21 25  2  0
 22 25  2  0
M  END
>  <washed_aromatic_smiles>  (211) 
Cc1ccc(cc1)S(=O)(=O)/N=C(\CN2CCOCC2)/N3CCOCC3

>  <name>  (211) 
neg255031

$$$$
neg243251
     RDKit          3D

 25 27  0  0  0  0  0  0  0  0999 V2000
    2.8880    6.5400   50.5910 C   0  0  0  0  0  0  0  0  0  0  0  0
    2.5720   -0.5510   55.0790 C   0  0  0  0  0  0  0  0  0  0  0  0
    3.4860    5.5910   49.7740 C   0  0  0  0  0  0  0  0  0  0  0  0
    1.7680    6.2030   51.3380 C   0  0  0  0  0  0  0  0  0  0  0  0
    1.4500   -0.5630   54.2830 C   0  0  0  0  0  0  0  0  0  0  0  0
    3.5490    0.3820   54.8590 C   0  0  0  0  0  0  0  0  0  0  0  0
    3.0200    4.2840   49.7770 C   0  0  0  0  0  0  0  0  0  0  0  0
    1.2980    4.9000   51.3260 C   0  0  0  0  0  0  0  0  0  0  0  0
    1.2870   -0.3730   46.6080 C   0  0  0  0  0  0  0  0  0  0  0  0
    0.2890    1.8150   46.6400 C   0  0  0  0  0  0  0  0  0  0  0  0
    1.3740    0.2810   53.2060 C   0  0  0  0  0  0  0  0  0  0  0  0
    3.5610    1.0270   53.6370 C   0  0  0  0  0  0  0  0  0  0  0  0
    1.0420   -0.4950   47.9500 C   0  0  0  0  0  0  0  0  0  0  0  0
    0.2160    1.7620   47.9900 C   0  0  0  0  0  0  0  0  0  0  0  0
    1.9970    3.8930   50.6440 C   0  0  0  0  0  0  0  0  0  0  0  0
    0.8500    0.7620   45.9590 C   0  0  0  0  0  0  0  0  0  0  0  0
    2.5490    0.8880   52.7450 C   0  0  0  0  0  0  0  0  0  0  0  0
    0.4870    0.5730   48.6220 C   0  0  0  0  0  0  0  0  0  0  0  0
    1.7380    2.4590   50.8240 C   0  0  0  0  0  0  0  0  0  0  0  0
    0.8160    0.8410   44.5120 C   0  0  0  0  0  0  0  0  0  0  0  0
    0.5990    1.9280   50.8290 N   0  0  0  0  0  0  0  0  0  0  0  0
   -1.2220    0.2690   50.5080 O   0  0  0  0  0  0  0  0  0  0  0  0
    1.0390   -0.6030   50.7430 O   0  0  0  0  0  0  0  0  0  0  0  0
    3.0530    1.4260   51.1460 S   0  0  0  0  0  0  0  0  0  0  0  0
    0.1740    0.4370   50.3070 S   0  0  0  0  0  0  0  0  0  0  0  0
  1  3  2  0
  1  4  1  0
  2  5  2  0
  2  6  1  0
  3  7  1  0
  4  8  2  0
  5 11  1  0
  6 12  2  0
  7 15  2  0
  8 15  1  0
  9 13  2  0
  9 16  1  0
 10 14  1  0
 10 16  2  0
 11 17  2  0
 12 17  1  0
 13 18  1  0
 14 18  2  0
 15 19  1  0
 16 20  1  0
 17 24  1  0
 18 25  1  0
 19 21  2  0
 19 24  1  0
 21 25  1  0
 22 25  2  0
 23 25  2  0
M  END
>  <washed_aromatic_smiles>  (212) 
Cc1ccc(cc1)S(=O)(=O)/N=C(/c2ccccc2)\Sc3ccccc3

>  <name>  (212) 
neg243251

$$$$
neg108230
     RDKit          3D

 25 26  0  0  0  0  0  0  0  0999 V2000
    3.9420   10.9340   57.5040 C   0  0  0  0  0  0  0  0  0  0  0  0
    5.5800    9.2260   57.8370 C   0  0  0  0  0  0  0  0  0  0  0  0
    3.2950   10.1470   56.5910 C   0  0  0  0  0  0  0  0  0  0  0  0
    4.9580    8.4480   56.8570 C   0  0  0  0  0  0  0  0  0  0  0  0
    5.0760   10.4930   58.1440 C   0  0  0  0  0  0  0  0  0  0  0  0
    3.8200    8.9300   56.2070 C   0  0  0  0  0  0  0  0  0  0  0  0
    2.7250    4.3160   51.6100 C   0  0  0  0  0  0  0  0  0  0  0  0
    2.2000    7.3920   51.9880 C   0  0  0  0  0  0  0  0  0  0  0  0
    1.6150    1.1520   49.9690 C   0  0  0  0  0  0  0  0  0  0  0  0
    3.1400    0.5720   51.8340 C   0  0  0  0  0  0  0  0  0  0  0  0
    1.4730    2.5640   50.5030 C   0  0  0  0  0  0  0  0  0  0  0  0
    3.0920    2.0100   52.3240 C   0  0  0  0  0  0  0  0  0  0  0  0
    1.8530    0.1770   51.1220 C   0  0  0  0  0  0  0  0  0  0  0  0
    5.6840   11.4530   59.1270 C   0  0  0  0  0  0  0  0  0  0  0  0
    2.0230   -1.2360   50.6260 C   0  0  0  0  0  0  0  0  0  0  0  0
    2.2810    5.3700   50.5910 C   0  0  0  0  0  0  0  0  0  0  0  0
    2.8660    8.7310   52.2800 C   0  0  0  0  0  0  0  0  0  0  0  0
    2.5770    3.0000   51.3460 N   0  0  0  0  0  0  0  0  0  0  0  0
    2.7560    6.6830   50.9990 N   0  0  0  0  0  0  0  0  0  0  0  0
    3.5380    8.9590   53.5410 N   0  0  0  0  0  0  0  0  0  0  0  0
    3.2710    4.7020   52.6370 O   0  0  0  0  0  0  0  0  0  0  0  0
    1.1450    7.0420   52.5210 O   0  0  0  0  0  0  0  0  0  0  0  0
    3.3230    6.7970   54.7670 O   0  0  0  0  0  0  0  0  0  0  0  0
    1.5760    8.4520   54.9920 O   0  0  0  0  0  0  0  0  0  0  0  0
    2.9640    8.1620   54.8540 S   0  0  0  0  0  0  0  0  0  0  0  0
  1  3  2  0
  1  5  1  0
  2  4  1  0
  2  5  2  0
  3  6  1  0
  4  6  2  0
  5 14  1  0
  6 25  1  0
  7 16  1  0
  7 18  1  0
  7 21  2  0
  8 17  1  0
  8 19  1  0
  8 22  2  0
  9 11  1  0
  9 13  1  0
 10 12  1  0
 10 13  1  0
 11 18  1  0
 12 18  1  0
 13 15  1  0
 16 19  1  0
 17 20  1  0
 20 25  1  0
 23 25  2  0
 24 25  2  0
M  END
>  <washed_aromatic_smiles>  (213) 
Cc1ccc(cc1)S(=O)(=O)NCC(=O)NCC(=O)N2CCC(CC2)C

>  <name>  (213) 
neg108230

$$$$
neg59564
     RDKit          3D

 25 27  0  0  0  0  0  0  0  0999 V2000
    1.3760    8.5830   54.9410 C   0  0  0  0  0  0  0  0  0  0  0  0
    3.7710    8.4080   55.0190 C   0  0  0  0  0  0  0  0  0  0  0  0
    1.4610    3.0080   50.6120 C   0  0  0  0  0  0  0  0  0  0  0  0
    0.8730    1.7710   50.8060 C   0  0  0  0  0  0  0  0  0  0  0  0
    1.3500    7.8770   53.7510 C   0  0  0  0  0  0  0  0  0  0  0  0
    3.7370    7.6520   53.8590 C   0  0  0  0  0  0  0  0  0  0  0  0
    1.4620    2.7180   48.1940 C   0  0  0  0  0  0  0  0  0  0  0  0
    2.5850    8.8570   55.5790 C   0  0  0  0  0  0  0  0  0  0  0  0
    1.6130    3.5040   49.3160 C   0  0  0  0  0  0  0  0  0  0  0  0
    0.5510    1.0460   49.6780 C   0  0  0  0  0  0  0  0  0  0  0  0
    1.0390    1.4370   48.4150 C   0  0  0  0  0  0  0  0  0  0  0  0
    2.5320    7.3780   53.2170 C   0  0  0  0  0  0  0  0  0  0  0  0
    3.2430    5.0880   48.8150 C   0  0  0  0  0  0  0  0  0  0  0  0
   -0.4030   -0.7120   48.5000 C   0  0  0  0  0  0  0  0  0  0  0  0
    0.9870   -0.7760   47.9080 C   0  0  0  0  0  0  0  0  0  0  0  0
    2.6110    9.5820   56.8950 C   0  0  0  0  0  0  0  0  0  0  0  0
    3.7990    6.3270   49.4230 C   0  0  0  0  0  0  0  0  0  0  0  0
    1.9720    4.8130   49.1380 N   0  0  0  0  0  0  0  0  0  0  0  0
    3.0820    7.0040   50.5340 N   0  0  0  0  0  0  0  0  0  0  0  0
    3.9080    4.3090   48.1540 O   0  0  0  0  0  0  0  0  0  0  0  0
    3.3070    5.1420   52.2130 O   0  0  0  0  0  0  0  0  0  0  0  0
    1.0920    5.9250   51.6290 O   0  0  0  0  0  0  0  0  0  0  0  0
   -0.2600   -0.0570   49.7740 O   0  0  0  0  0  0  0  0  0  0  0  0
    1.1890    0.5230   47.4130 O   0  0  0  0  0  0  0  0  0  0  0  0
    2.4650    6.2270   51.8620 S   0  0  0  0  0  0  0  0  0  0  0  0
  1  5  2  0
  1  8  1  0
  2  6  1  0
  2  8  2  0
  3  4  2  0
  3  9  1  0
  4 10  1  0
  5 12  1  0
  6 12  2  0
  7  9  2  0
  7 11  1  0
  8 16  1  0
  9 18  1  0
 10 11  2  0
 10 23  1  0
 11 24  1  0
 12 25  1  0
 13 17  1  0
 13 18  1  0
 13 20  2  0
 14 15  1  0
 14 23  1  0
 15 24  1  0
 17 19  1  0
 19 25  1  0
 21 25  2  0
 22 25  2  0
M  END
>  <washed_aromatic_smiles>  (214) 
Cc1ccc(cc1)S(=O)(=O)NCC(=O)Nc2ccc3c(c2)OCCO3

>  <name>  (214) 
neg59564

$$$$
neg14549
     RDKit          3D

 26 27  0  0  0  0  0  0  0  0999 V2000
    1.3310    0.0640   52.7160 C   0  0  0  0  0  0  0  0  0  0  0  0
    0.2310    0.6480   52.0980 C   0  0  0  0  0  0  0  0  0  0  0  0
    2.2080   -0.7020   51.9590 C   0  0  0  0  0  0  0  0  0  0  0  0
    1.8250    9.0720   57.0260 C   0  0  0  0  0  0  0  0  0  0  0  0
    0.3030    8.5750   55.2510 C   0  0  0  0  0  0  0  0  0  0  0  0
    0.0070    0.4940   50.7430 C   0  0  0  0  0  0  0  0  0  0  0  0
    1.9980   -0.8530   50.5950 C   0  0  0  0  0  0  0  0  0  0  0  0
    2.8770    9.0750   56.1280 C   0  0  0  0  0  0  0  0  0  0  0  0
    1.3440    8.5980   54.3500 C   0  0  0  0  0  0  0  0  0  0  0  0
    0.5150    8.8090   56.6130 C   0  0  0  0  0  0  0  0  0  0  0  0
    0.9210   -0.2160   49.9650 C   0  0  0  0  0  0  0  0  0  0  0  0
    2.6390    8.7940   54.7930 C   0  0  0  0  0  0  0  0  0  0  0  0
    2.8370    5.4070   49.6640 C   0  0  0  0  0  0  0  0  0  0  0  0
   -0.6130    8.5860   57.5950 C   0  0  0  0  0  0  0  0  0  0  0  0
    3.1050    5.5430   51.1530 C   0  0  0  0  0  0  0  0  0  0  0  0
    1.5490    2.4100   48.6310 C   0  0  0  0  0  0  0  0  0  0  0  0
    2.7100    6.8500   51.8170 C   0  0  0  0  0  0  0  0  0  0  0  0
    1.6950    3.8510   48.1470 C   0  0  0  0  0  0  0  0  0  0  0  0
    0.7370    1.5000   47.7010 C   0  0  0  0  0  0  0  0  0  0  0  0
    1.7660    4.6870   49.3320 N   0  0  0  0  0  0  0  0  0  0  0  0
    3.4880    6.9920   53.0530 N   0  0  0  0  0  0  0  0  0  0  0  0
    3.6810    5.7790   48.8520 O   0  0  0  0  0  0  0  0  0  0  0  0
    3.9570    9.4730   52.6730 O   0  0  0  0  0  0  0  0  0  0  0  0
    5.1530    8.3140   54.4340 O   0  0  0  0  0  0  0  0  0  0  0  0
    0.7320   -0.2570   48.2290 S   0  0  0  0  0  0  0  0  0  0  0  0
    3.9560    8.4650   53.6750 S   0  0  0  0  0  0  0  0  0  0  0  0
  1  2  2  0
  1  3  1  0
  2  6  1  0
  3  7  2  0
  4  8  2  0
  4 10  1  0
  5  9  1  0
  5 10  2  0
  6 11  2  0
  7 11  1  0
  8 12  1  0
  9 12  2  0
 10 14  1  0
 11 25  1  0
 12 26  1  0
 13 15  1  0
 13 20  1  0
 13 22  2  0
 15 17  1  0
 16 18  1  0
 16 19  1  0
 17 21  1  0
 18 20  1  0
 19 25  1  0
 21 26  1  0
 23 26  2  0
 24 26  2  0
M  END
>  <washed_aromatic_smiles>  (215) 
Cc1ccc(cc1)S(=O)(=O)NCCC(=O)NCCCSc2ccccc2

>  <name>  (215) 
neg14549

$$$$
neg49813
     RDKit          3D

 26 28  0  0  0  0  0  0  0  0999 V2000
    1.4130    4.5810   51.0000 C   0  0  0  0  0  0  0  0  0  0  0  0
    3.0260    5.7470   49.6700 C   0  0  0  0  0  0  0  0  0  0  0  0
    2.5850   -1.0570   52.1020 C   0  0  0  0  0  0  0  0  0  0  0  0
    0.9480    0.5380   52.7680 C   0  0  0  0  0  0  0  0  0  0  0  0
    1.4020    5.6180   51.9180 C   0  0  0  0  0  0  0  0  0  0  0  0
    3.0270    6.7820   50.5990 C   0  0  0  0  0  0  0  0  0  0  0  0
    2.1490   -0.9570   50.7910 C   0  0  0  0  0  0  0  0  0  0  0  0
    0.4800    0.6180   51.4600 C   0  0  0  0  0  0  0  0  0  0  0  0
    2.2130    4.6130   49.8470 C   0  0  0  0  0  0  0  0  0  0  0  0
    2.0160   -0.2810   53.0960 C   0  0  0  0  0  0  0  0  0  0  0  0
    2.2740    6.6860   51.7730 C   0  0  0  0  0  0  0  0  0  0  0  0
    1.1030   -0.1110   50.4500 C   0  0  0  0  0  0  0  0  0  0  0  0
    2.1630    3.5570   48.8450 C   0  0  0  0  0  0  0  0  0  0  0  0
    3.1970    8.6420   53.1230 C   0  0  0  0  0  0  0  0  0  0  0  0
    2.4220    8.9690   55.6340 C   0  0  0  0  0  0  0  0  0  0  0  0
    3.6560    8.1200   55.6360 C   0  0  0  0  0  0  0  0  0  0  0  0
    3.4390    9.1230   54.5410 C   0  0  0  0  0  0  0  0  0  0  0  0
    2.5410   -0.3330   54.5120 C   0  0  0  0  0  0  0  0  0  0  0  0
    2.3650    7.5590   52.9070 N   0  0  0  0  0  0  0  0  0  0  0  0
    1.4340    2.4430   49.1180 N   0  0  0  0  0  0  0  0  0  0  0  0
    1.1270    1.4000   48.2260 N   0  0  0  0  0  0  0  0  0  0  0  0
    2.7660    3.6090   47.7350 O   0  0  0  0  0  0  0  0  0  0  0  0
    3.7610    9.1900   52.2130 O   0  0  0  0  0  0  0  0  0  0  0  0
    1.1890   -1.0770   48.0190 O   0  0  0  0  0  0  0  0  0  0  0  0
   -0.8700   -0.0240   48.7520 O   0  0  0  0  0  0  0  0  0  0  0  0
    0.5590   -0.0160   48.7470 S   0  0  1  0  0  0  0  0  0  0  0  0
  1  5  2  0
  1  9  1  0
  2  6  1  0
  2  9  2  0
  3  7  2  0
  3 10  1  0
  4  8  1  0
  4 10  2  0
  5 11  1  0
  6 11  2  0
  7 12  1  0
  8 12  2  0
  9 13  1  0
 10 18  1  0
 11 19  1  0
 12 26  1  0
 13 20  1  0
 13 22  2  0
 14 17  1  0
 14 19  1  0
 14 23  2  0
 15 16  1  0
 15 17  1  0
 16 17  1  0
 20 21  1  0
 21 26  2  0
 24 26  2  0
 26 25  1  1
M  CHG  1  25  -1
M  END
>  <washed_aromatic_smiles>  (216) 
Cc1ccc(cc1)S(=O)(=O)NNC(=O)c2ccc(cc2)NC(=O)C3CC3

>  <name>  (216) 
neg49813

$$$$
neg254078
     RDKit          3D

 27 29  0  0  0  0  0  0  0  0999 V2000
    2.4530   -0.3570   52.5760 C   0  0  0  0  0  0  0  0  0  0  0  0
   -0.1730    7.1590   52.1490 C   0  0  0  0  0  0  0  0  0  0  0  0
    1.7380    8.5170   52.7170 C   0  0  0  0  0  0  0  0  0  0  0  0
    2.0850   -0.0810   51.2660 C   0  0  0  0  0  0  0  0  0  0  0  0
    0.6280    6.0800   51.8880 C   0  0  0  0  0  0  0  0  0  0  0  0
    2.5340    7.4380   52.4670 C   0  0  0  0  0  0  0  0  0  0  0  0
    2.7920    1.9860   52.9390 C   0  0  0  0  0  0  0  0  0  0  0  0
    2.7960    0.6830   53.4330 C   0  0  0  0  0  0  0  0  0  0  0  0
    0.3880    8.3930   52.4720 C   0  0  0  0  0  0  0  0  0  0  0  0
    2.0360    1.2260   50.7600 C   0  0  0  0  0  0  0  0  0  0  0  0
    2.4340    2.3310   51.6190 C   0  0  0  0  0  0  0  0  0  0  0  0
    1.9770    6.2600   51.9890 C   0  0  0  0  0  0  0  0  0  0  0  0
    3.1540    0.4000   54.8180 C   0  0  0  0  0  0  0  0  0  0  0  0
    0.6870    1.8620   46.5700 C   0  0  0  0  0  0  0  0  0  0  0  0
    0.5960    0.4700   47.2030 C   0  0  0  0  0  0  0  0  0  0  0  0
    1.3530    2.9330   47.4470 C   0  0  0  0  0  0  0  0  0  0  0  0
    0.8560    0.3080   48.7130 C   0  0  0  0  0  0  0  0  0  0  0  0
    1.0290    2.6350   48.8760 C   0  0  0  0  0  0  0  0  0  0  0  0
   -0.3750    9.6510   52.5070 C   0  0  0  0  0  0  0  0  0  0  0  0
    4.0600    1.3860   56.9130 C   0  0  0  0  0  0  0  0  0  0  0  0
    1.6360    1.3940   49.3600 N   0  0  0  0  0  0  0  0  0  0  0  0
    2.4530    3.6330   51.2370 N   0  0  0  0  0  0  0  0  0  0  0  0
    3.3550   -0.7220   55.2480 O   0  0  0  0  0  0  0  0  0  0  0  0
    3.7970    4.9710   52.9210 O   0  0  0  0  0  0  0  0  0  0  0  0
    3.8840    5.5210   50.5260 O   0  0  0  0  0  0  0  0  0  0  0  0
    3.3060    1.4400   55.6740 O   0  0  0  0  0  0  0  0  0  0  0  0
    3.1370    5.0490   51.6560 S   0  0  2  0  0  0  0  0  0  0  0  0
  1  4  2  0
  1  8  1  0
  2  5  2  0
  2  9  1  0
  3  6  1  0
  3  9  2  0
  4 10  1  0
  5 12  1  0
  6 12  2  0
  7  8  2  0
  7 11  1  0
  8 13  1  0
  9 19  1  0
 10 11  2  0
 10 21  1  0
 11 22  1  0
 12 27  1  0
 13 23  2  0
 13 26  1  0
 14 15  1  0
 14 16  1  0
 15 17  1  0
 16 18  1  0
 17 21  1  0
 18 21  1  0
 20 26  1  0
 22 27  2  0
 24 27  2  0
 27 25  1  6
M  CHG  1  25  -1
M  END
>  <washed_aromatic_smiles>  (217) 
Cc1ccc(cc1)S(=O)(=O)Nc2cc(ccc2N3CCCCC3)C(=O)OC

>  <name>  (217) 
neg254078

$$$$
neg116193
     RDKit          3D

 25 27  0  0  0  0  0  0  0  0999 V2000
    1.6670    8.2760   52.7720 C   0  0  0  0  0  0  0  0  0  0  0  0
    0.5830    7.4140   52.8010 C   0  0  0  0  0  0  0  0  0  0  0  0
    2.8010    7.9200   52.0590 C   0  0  0  0  0  0  0  0  0  0  0  0
    0.6510    6.1730   52.1740 C   0  0  0  0  0  0  0  0  0  0  0  0
    2.8500    6.7010   51.3880 C   0  0  0  0  0  0  0  0  0  0  0  0
    4.0610   -0.6250   55.8810 C   0  0  0  0  0  0  0  0  0  0  0  0
    3.3540    1.6500   55.9180 C   0  0  0  0  0  0  0  0  0  0  0  0
    3.4030   -0.8040   54.6590 C   0  0  0  0  0  0  0  0  0  0  0  0
    2.7870    1.4780   54.6610 C   0  0  0  0  0  0  0  0  0  0  0  0
    2.5480    3.4060   51.5510 C   0  0  0  0  0  0  0  0  0  0  0  0
    1.8060    5.7920   51.4790 C   0  0  0  0  0  0  0  0  0  0  0  0
    4.0450    0.6100   56.5160 C   0  0  0  0  0  0  0  0  0  0  0  0
    2.4240    2.1670   50.8780 C   0  0  0  0  0  0  0  0  0  0  0  0
    2.7960    0.2590   54.0100 C   0  0  0  0  0  0  0  0  0  0  0  0
    1.9820    4.4670   50.9080 C   0  0  0  0  0  0  0  0  0  0  0  0
    1.7360    2.3340   49.6420 C   0  0  0  0  0  0  0  0  0  0  0  0
    1.2100    1.3490   48.7860 C   0  0  0  0  0  0  0  0  0  0  0  0
    4.7680    0.8280   57.8280 C   0  0  0  0  0  0  0  0  0  0  0  0
    0.6500    1.7320   47.4300 C   0  0  0  0  0  0  0  0  0  0  0  0
    2.9160    1.0400   51.3850 N   0  0  0  0  0  0  0  0  0  0  0  0
    1.1340    0.1370   49.0790 O   0  0  0  0  0  0  0  0  0  0  0  0
    0.7000    0.5160   52.4520 O   0  0  0  0  0  0  0  0  0  0  0  0
    2.2690   -1.2930   51.9750 O   0  0  0  0  0  0  0  0  0  0  0  0
    1.4800    4.0490   49.3110 S   0  0  0  0  0  0  0  0  0  0  0  0
    2.0600    0.0670   52.3720 S   0  0  2  0  0  0  0  0  0  0  0  0
  1  2  2  0
  1  3  1  0
  2  4  1  0
  3  5  2  0
  4 11  2  0
  5 11  1  0
  6  8  2  0
  6 12  1  0
  7  9  1  0
  7 12  2  0
  8 14  1  0
  9 14  2  0
 10 13  1  0
 10 15  2  0
 11 15  1  0
 12 18  1  0
 13 16  2  0
 13 20  1  0
 14 25  1  0
 15 24  1  0
 16 17  1  0
 16 24  1  0
 17 19  1  0
 17 21  2  0
 20 25  2  0
 22 25  2  0
 25 23  1  6
M  CHG  1  23  -1
M  END
>  <washed_aromatic_smiles>  (218) 
Cc1ccc(cc1)S(=O)(=O)Nc2cc(sc2C(=O)C)c3ccccc3

>  <name>  (218) 
neg116193

$$$$
neg68865
     RDKit          3D

 27 29  0  0  0  0  0  0  0  0999 V2000
    1.6950    4.3420   51.0690 C   0  0  0  0  0  0  0  0  0  0  0  0
    3.2960    4.8170   49.3660 C   0  0  0  0  0  0  0  0  0  0  0  0
    2.7410   -1.2320   52.4780 C   0  0  0  0  0  0  0  0  0  0  0  0
    1.2030    0.3790   53.3090 C   0  0  0  0  0  0  0  0  0  0  0  0
    1.4170    3.1410   50.4900 C   0  0  0  0  0  0  0  0  0  0  0  0
    2.9360    3.6500   48.7020 C   0  0  0  0  0  0  0  0  0  0  0  0
    2.3400   -0.9730   51.1820 C   0  0  0  0  0  0  0  0  0  0  0  0
    0.6700    0.4980   52.0380 C   0  0  0  0  0  0  0  0  0  0  0  0
    1.2400    9.5640   52.5850 C   0  0  0  0  0  0  0  0  0  0  0  0
    1.6890    7.9840   54.2950 C   0  0  0  0  0  0  0  0  0  0  0  0
   -0.0870    9.5100   52.9020 C   0  0  0  0  0  0  0  0  0  0  0  0
    0.3680    8.1260   54.6770 C   0  0  0  0  0  0  0  0  0  0  0  0
    2.7400    5.1320   50.6270 C   0  0  0  0  0  0  0  0  0  0  0  0
    2.2680   -0.4690   53.5310 C   0  0  0  0  0  0  0  0  0  0  0  0
    2.1110    8.6970   53.1940 C   0  0  0  0  0  0  0  0  0  0  0  0
    2.0220    2.7110   49.2910 C   0  0  0  0  0  0  0  0  0  0  0  0
    1.3240   -0.0750   50.9460 C   0  0  0  0  0  0  0  0  0  0  0  0
    3.2110    6.0650   51.5990 C   0  0  0  0  0  0  0  0  0  0  0  0
    2.8610   -0.5600   54.9050 C   0  0  0  0  0  0  0  0  0  0  0  0
    3.3590    8.3840   52.4880 C   0  0  0  0  0  0  0  0  0  0  0  0
   -0.4690    8.8300   53.9580 N   0  0  0  0  0  0  0  0  0  0  0  0
    1.7430    1.5200   48.7640 N   0  0  0  0  0  0  0  0  0  0  0  0
    3.0170    7.4110   51.4300 N   0  0  0  0  0  0  0  0  0  0  0  0
    3.7100    5.6920   52.6730 O   0  0  0  0  0  0  0  0  0  0  0  0
   -0.5390    0.5880   49.3550 O   0  0  0  0  0  0  0  0  0  0  0  0
    1.1210   -0.9140   48.4810 O   0  0  0  0  0  0  0  0  0  0  0  0
    0.8260    0.2430   49.2720 S   0  0  2  0  0  0  0  0  0  0  0  0
  1  5  2  0
  1 13  1  0
  2  6  1  0
  2 13  2  0
  3  7  2  0
  3 14  1  0
  4  8  1  0
  4 14  2  0
  5 16  1  0
  6 16  2  0
  7 17  1  0
  8 17  2  0
  9 11  2  0
  9 15  1  0
 10 12  1  0
 10 15  2  0
 11 21  1  0
 12 21  2  0
 13 18  1  0
 14 19  1  0
 15 20  1  0
 16 22  1  0
 17 27  1  0
 18 23  1  0
 18 24  2  0
 20 23  1  0
 22 27  2  0
 25 27  2  0
 27 26  1  6
M  CHG  1  26  -1
M  END
>  <washed_aromatic_smiles>  (219) 
Cc1ccc(cc1)S(=O)(=O)Nc2ccc(cc2)C(=O)NCc3ccncc3

>  <name>  (219) 
neg68865

$$$$
neg320755
     RDKit          3D

 27 29  0  0  0  0  0  0  0  0999 V2000
    3.6190    7.8740   54.7560 C   0  0  0  0  0  0  0  0  0  0  0  0
    1.2970    8.4360   54.5560 C   0  0  0  0  0  0  0  0  0  0  0  0
    2.1640    3.8780   49.3280 C   0  0  0  0  0  0  0  0  0  0  0  0
    2.1440    2.7180   51.4240 C   0  0  0  0  0  0  0  0  0  0  0  0
    3.5410    7.1700   53.5590 C   0  0  0  0  0  0  0  0  0  0  0  0
    1.2370    7.7780   53.3350 C   0  0  0  0  0  0  0  0  0  0  0  0
    1.5940    2.7570   48.7280 C   0  0  0  0  0  0  0  0  0  0  0  0
    1.3450    1.7530   50.8790 C   0  0  0  0  0  0  0  0  0  0  0  0
    3.3930    0.2600   53.0420 C   0  0  0  0  0  0  0  0  0  0  0  0
    2.5550   -0.7910   53.1840 C   0  0  0  0  0  0  0  0  0  0  0  0
    3.9730    0.5150   51.7620 C   0  0  0  0  0  0  0  0  0  0  0  0
    2.4960    8.5180   55.2620 C   0  0  0  0  0  0  0  0  0  0  0  0
    2.4580    3.8760   50.7270 C   0  0  0  0  0  0  0  0  0  0  0  0
    2.3670    7.1500   52.8150 C   0  0  0  0  0  0  0  0  0  0  0  0
    1.1910    1.6550   49.5010 C   0  0  0  0  0  0  0  0  0  0  0  0
    2.3850   -0.8980   50.8080 C   0  0  0  0  0  0  0  0  0  0  0  0
    2.5800    9.2670   56.5740 C   0  0  0  0  0  0  0  0  0  0  0  0
    2.2260   -1.4970   52.0530 N   0  0  0  0  0  0  0  0  0  0  0  0
    3.5050   -0.0360   50.7030 N   0  0  0  0  0  0  0  0  0  0  0  0
    2.8680    4.8680   51.4970 N   0  0  0  0  0  0  0  0  0  0  0  0
    1.3720   -1.0030   50.0120 N   0  0  0  0  0  0  0  0  0  0  0  0
    3.1350    6.9980   50.3070 O   0  0  0  0  0  0  0  0  0  0  0  0
    0.8830    6.1940   50.9080 O   0  0  0  0  0  0  0  0  0  0  0  0
    1.2660   -0.1600   47.6000 O   0  0  0  0  0  0  0  0  0  0  0  0
   -0.7100   -0.0420   48.9820 O   0  0  0  0  0  0  0  0  0  0  0  0
    2.2780    6.3170   51.2320 S   0  0  2  0  0  0  0  0  0  0  0  0
    0.7110    0.0440   48.8990 S   0  0  0  0  0  0  0  0  0  0  0  0
  1  5  2  0
  1 12  1  0
  2  6  1  0
  2 12  2  0
  3  7  2  0
  3 13  1  0
  4  8  1  0
  4 13  2  0
  5 14  1  0
  6 14  2  0
  7 15  1  0
  8 15  2  0
  9 10  2  0
  9 11  1  0
 10 18  1  0
 11 19  2  0
 12 17  1  0
 13 20  1  0
 14 26  1  0
 15 27  1  0
 16 18  1  0
 16 19  1  0
 16 21  2  0
 20 26  2  0
 21 27  1  0
 22 26  2  0
 26 23  1  6
 24 27  2  0
 25 27  2  0
M  CHG  1  23  -1
M  END
>  <washed_aromatic_smiles>  (220) 
Cc1ccc(cc1)S(=O)(=O)Nc2ccc(cc2)S(=O)(=O)Nc3ncccn3

>  <name>  (220) 
neg320755

$$$$
neg216554
     RDKit          3D

 25 27  0  0  0  0  0  0  0  0999 V2000
    0.7950    0.5400   48.2450 C   0  0  0  0  0  0  0  0  0  0  0  0
    0.8760   -0.6560   48.9480 C   0  0  0  0  0  0  0  0  0  0  0  0
    2.6500    6.5350   52.5660 C   0  0  0  0  0  0  0  0  0  0  0  0
    2.9090    7.6060   51.7390 C   0  0  0  0  0  0  0  0  0  0  0  0
    1.3720    1.6740   48.8000 C   0  0  0  0  0  0  0  0  0  0  0  0
    4.5930   -0.0280   56.5990 C   0  0  0  0  0  0  0  0  0  0  0  0
    3.3210    1.9550   56.2210 C   0  0  0  0  0  0  0  0  0  0  0  0
    1.4880   -0.7300   50.1900 C   0  0  0  0  0  0  0  0  0  0  0  0
    4.0010   -0.5930   55.4760 C   0  0  0  0  0  0  0  0  0  0  0  0
    2.7240    1.3660   55.1160 C   0  0  0  0  0  0  0  0  0  0  0  0
    2.6880    5.2820   51.9970 C   0  0  0  0  0  0  0  0  0  0  0  0
    3.2440    7.3610   50.4060 C   0  0  0  0  0  0  0  0  0  0  0  0
    4.2650    1.2650   56.9760 C   0  0  0  0  0  0  0  0  0  0  0  0
    1.9800    1.6130   50.0430 C   0  0  0  0  0  0  0  0  0  0  0  0
    1.9920    0.4310   50.8250 C   0  0  0  0  0  0  0  0  0  0  0  0
    3.0520    0.0860   54.7200 C   0  0  0  0  0  0  0  0  0  0  0  0
    2.9210    5.1510   50.6140 C   0  0  0  0  0  0  0  0  0  0  0  0
    4.9550    1.9040   58.1600 C   0  0  0  0  0  0  0  0  0  0  0  0
    2.5340    2.8120   50.7230 C   0  0  0  0  0  0  0  0  0  0  0  0
    3.2620    6.1660   49.8500 N   0  0  0  0  0  0  0  0  0  0  0  0
    2.4210    0.4890   52.1010 N   0  0  0  0  0  0  0  0  0  0  0  0
    2.7720    3.9710   49.9260 N   0  0  0  0  0  0  0  0  0  0  0  0
    0.8800   -0.7580   53.5840 O   0  0  0  0  0  0  0  0  0  0  0  0
    2.9580   -1.7850   52.8850 O   0  0  0  0  0  0  0  0  0  0  0  0
    2.2590   -0.6070   53.2600 S   0  0  2  0  0  0  0  0  0  0  0  0
  1  2  2  0
  1  5  1  0
  2  8  1  0
  3  4  2  0
  3 11  1  0
  4 12  1  0
  5 14  2  0
  6  9  2  0
  6 13  1  0
  7 10  1  0
  7 13  2  0
  8 15  2  0
  9 16  1  0
 10 16  2  0
 11 17  2  0
 12 20  2  0
 13 18  1  0
 14 15  1  0
 14 19  1  0
 15 21  1  0
 16 25  1  0
 17 20  1  0
 17 22  1  0
 19 22  1  0
 21 25  2  0
 23 25  2  0
 25 24  1  6
M  CHG  1  24  -1
M  END
>  <washed_aromatic_smiles>  (221) 
Cc1ccc(cc1)S(=O)(=O)Nc2ccccc2CNc3ccccn3

>  <name>  (221) 
neg216554

$$$$
neg224575
     RDKit          3D

 34 37  0  0  0  0  0  0  0  0999 V2000
    3.0900   -0.6140   50.6170 C   0  0  0  0  0  0  0  0  0  0  0  0
    2.9040    5.3620   49.9780 C   0  0  0  0  0  0  0  0  0  0  0  0
    3.1880   -1.0500   51.8960 C   0  0  0  0  0  0  0  0  0  0  0  0
    1.8460    5.6840   50.8120 C   0  0  0  0  0  0  0  0  0  0  0  0
    3.1910    0.7570   50.3290 C   0  0  0  0  0  0  0  0  0  0  0  0
    3.2850    4.0310   49.8820 C   0  0  0  0  0  0  0  0  0  0  0  0
    5.5050    1.3660   58.2700 C   0  0  0  0  0  0  0  0  0  0  0  0
    5.4220   -0.8920   57.4670 C   0  0  0  0  0  0  0  0  0  0  0  0
    0.5870    1.7430   47.0530 C   0  0  0  0  0  0  0  0  0  0  0  0
    1.2050   -0.5570   47.2960 C   0  0  0  0  0  0  0  0  0  0  0  0
    3.4500   -0.1510   52.8480 C   0  0  0  0  0  0  0  0  0  0  0  0
    1.0940    4.6630   51.3340 C   0  0  0  0  0  0  0  0  0  0  0  0
    4.7830    1.7890   57.1560 C   0  0  0  0  0  0  0  0  0  0  0  0
    4.6980   -0.4680   56.3620 C   0  0  0  0  0  0  0  0  0  0  0  0
    0.4220    1.8180   48.3990 C   0  0  0  0  0  0  0  0  0  0  0  0
    0.8410   -0.5280   48.6280 C   0  0  0  0  0  0  0  0  0  0  0  0
    3.2400    1.7360   51.2890 C   0  0  0  0  0  0  0  0  0  0  0  0
    2.7860    3.0490   50.7770 C   0  0  0  0  0  0  0  0  0  0  0  0
    5.7680    0.0110   58.4630 C   0  0  0  0  0  0  0  0  0  0  0  0
    1.0030    0.5650   46.5000 C   0  0  0  0  0  0  0  0  0  0  0  0
    3.2950    1.2320   52.6660 C   0  0  0  0  0  0  0  0  0  0  0  0
    1.4660    3.2990   51.1110 C   0  0  0  0  0  0  0  0  0  0  0  0
    4.3060    0.8640   56.2230 C   0  0  0  0  0  0  0  0  0  0  0  0
    0.4760    0.6770   49.1910 C   0  0  0  0  0  0  0  0  0  0  0  0
    6.3250   -0.5170   59.7670 C   0  0  0  0  0  0  0  0  0  0  0  0
    1.3260    0.5670   45.0640 C   0  0  0  0  0  0  0  0  0  0  0  0
    3.0450    1.8920   53.7810 N   0  0  0  0  0  0  0  0  0  0  0  0
    0.5910    2.2940   51.2110 N   0  0  0  0  0  0  0  0  0  0  0  0
    2.1720    2.2110   56.0760 O   0  0  0  0  0  0  0  0  0  0  0  0
    2.1700   -0.0300   55.1220 O   0  0  0  0  0  0  0  0  0  0  0  0
    0.6010   -0.1290   51.7140 O   0  0  0  0  0  0  0  0  0  0  0  0
   -1.3950    0.8910   50.8350 O   0  0  0  0  0  0  0  0  0  0  0  0
    2.8170    1.2390   55.2740 S   0  0  2  0  0  0  0  0  0  0  0  0
    0.0170    0.8540   50.8750 S   0  0  2  0  0  0  0  0  0  0  0  0
  1  3  2  0
  1  5  1  0
  2  4  2  0
  2  6  1  0
  3 11  1  0
  4 12  1  0
  5 17  2  0
  6 18  2  0
  7 13  2  0
  7 19  1  0
  8 14  1  0
  8 19  2  0
  9 15  2  0
  9 20  1  0
 10 16  1  0
 10 20  2  0
 11 21  2  0
 12 22  2  0
 13 23  1  0
 14 23  2  0
 15 24  1  0
 16 24  2  0
 17 18  1  0
 17 21  1  0
 18 22  1  0
 19 25  1  0
 20 26  1  0
 21 27  1  0
 22 28  1  0
 23 33  1  0
 24 34  1  0
 27 33  2  0
 28 34  2  0
 29 33  2  0
 33 30  1  6
 31 34  2  0
 34 32  1  6
M  CHG  2  30  -1  32  -1
M  END
>  <washed_aromatic_smiles>  (222) 
Cc1ccc(cc1)S(=O)(=O)Nc2ccccc2c3ccccc3NS(=O)(=O)c4ccc(cc4)C

>  <name>  (222) 
neg224575

$$$$
neg72598
     RDKit          3D

 26 28  0  0  0  0  0  0  0  0999 V2000
    1.6070    4.2780   50.6380 C   0  0  0  0  0  0  0  0  0  0  0  0
    3.2480    5.7530   49.7450 C   0  0  0  0  0  0  0  0  0  0  0  0
    1.2850    5.2280   51.6050 C   0  0  0  0  0  0  0  0  0  0  0  0
    2.9540    6.6700   50.7490 C   0  0  0  0  0  0  0  0  0  0  0  0
    2.5740    4.5440   49.6830 C   0  0  0  0  0  0  0  0  0  0  0  0
    1.9980    6.4130   51.7350 C   0  0  0  0  0  0  0  0  0  0  0  0
    4.4670    9.3630   54.8630 C   0  0  0  0  0  0  0  0  0  0  0  0
    4.3070    8.2830   55.7330 C   0  0  0  0  0  0  0  0  0  0  0  0
    3.7190    9.0400   53.8040 C   0  0  0  0  0  0  0  0  0  0  0  0
    5.9080   12.5090   59.0570 C   0  0  0  0  0  0  0  0  0  0  0  0
    4.9970   11.3170   58.7130 C   0  0  0  0  0  0  0  0  0  0  0  0
    6.1600   13.4660   57.8780 C   0  0  0  0  0  0  0  0  0  0  0  0
    4.4700   11.3230   57.2800 C   0  0  0  0  0  0  0  0  0  0  0  0
    6.0510   12.8680   56.4500 C   0  0  0  0  0  0  0  0  0  0  0  0
    2.8290    3.5650   48.5600 C   0  0  0  0  0  0  0  0  0  0  0  0
    5.0110    8.0460   57.0500 C   0  0  0  0  0  0  0  0  0  0  0  0
    3.6530    9.7700   52.5550 C   0  0  0  0  0  0  0  0  0  0  0  0
    3.4220    7.4370   55.2560 N   0  0  0  0  0  0  0  0  0  0  0  0
    3.0080    7.9440   54.0550 N   0  0  0  0  0  0  0  0  0  0  0  0
    5.5600   11.4820   56.3340 N   0  0  0  0  0  0  0  0  0  0  0  0
    0.9860    8.7160   52.5800 O   0  0  0  0  0  0  0  0  0  0  0  0
    0.6870    6.8410   53.9810 O   0  0  0  0  0  0  0  0  0  0  0  0
    6.5240   10.7270   54.0820 O   0  0  0  0  0  0  0  0  0  0  0  0
    4.4760   11.9310   54.1580 O   0  0  0  0  0  0  0  0  0  0  0  0
    1.5530    7.5360   53.1230 S   0  0  0  0  0  0  0  0  0  0  0  0
    5.3120   10.9620   54.7760 S   0  0  0  0  0  0  0  0  0  0  0  0
  1  3  2  0
  1  5  1  0
  2  4  1  0
  2  5  2  0
  3  6  1  0
  4  6  2  0
  5 15  1  0
  6 25  1  0
  7  8  1  0
  7  9  2  0
  7 26  1  0
  8 16  1  0
  8 18  2  0
  9 17  1  0
  9 19  1  0
 10 11  1  0
 10 12  1  0
 11 13  1  0
 12 14  1  0
 13 20  1  0
 14 20  1  0
 18 19  1  0
 19 25  1  0
 20 26  1  0
 21 25  2  0
 22 25  2  0
 23 26  2  0
 24 26  2  0
M  END
>  <washed_aromatic_smiles>  (223) 
Cc1ccc(cc1)S(=O)(=O)n2c(c(c(n2)C)S(=O)(=O)N3CCCCC3)C

>  <name>  (223) 
neg72598

$$$$
neg189802
     RDKit          3D

 25 27  0  0  0  0  0  0  0  0999 V2000
    1.6420    0.3810   50.7700 C   0  0  0  0  0  0  0  0  0  0  0  0
    2.8910    1.2760   52.6210 C   0  0  0  0  0  0  0  0  0  0  0  0
    3.9830   10.0460   57.1120 C   0  0  0  0  0  0  0  0  0  0  0  0
    5.2240   11.2910   55.4450 C   0  0  0  0  0  0  0  0  0  0  0  0
    4.4620   10.9020   58.0960 C   0  0  0  0  0  0  0  0  0  0  0  0
    5.6750   12.1620   56.4290 C   0  0  0  0  0  0  0  0  0  0  0  0
    1.5830    1.6430   50.1920 C   0  0  0  0  0  0  0  0  0  0  0  0
    2.8320    2.5350   52.0520 C   0  0  0  0  0  0  0  0  0  0  0  0
    2.2800    0.1980   51.9970 C   0  0  0  0  0  0  0  0  0  0  0  0
    4.3660   10.2190   55.7700 C   0  0  0  0  0  0  0  0  0  0  0  0
    5.3090   11.9520   57.7580 C   0  0  0  0  0  0  0  0  0  0  0  0
    2.1470    2.7420   50.8500 C   0  0  0  0  0  0  0  0  0  0  0  0
    2.6770    6.7440   51.4840 C   0  0  0  0  0  0  0  0  0  0  0  0
    2.7050    8.4570   54.9430 C   0  0  0  0  0  0  0  0  0  0  0  0
    4.2600    9.5320   53.3420 C   0  0  0  0  0  0  0  0  0  0  0  0
    2.5570    7.2720   53.9480 C   0  0  0  0  0  0  0  0  0  0  0  0
    3.2720    8.9580   52.3210 C   0  0  0  0  0  0  0  0  0  0  0  0
    2.2650   -1.1330   52.6930 C   0  0  0  0  0  0  0  0  0  0  0  0
    6.4060   14.0470   58.6020 C   0  0  0  0  0  0  0  0  0  0  0  0
    1.8390    5.4950   51.6230 C   0  0  0  0  0  0  0  0  0  0  0  0
    3.9060    9.3050   54.7540 N   0  0  0  0  0  0  0  0  0  0  0  0
    2.8260    7.5900   52.5410 N   0  0  0  0  0  0  0  0  0  0  0  0
    3.1820    6.9780   50.3880 O   0  0  0  0  0  0  0  0  0  0  0  0
    5.7790   12.7550   58.7870 O   0  0  0  0  0  0  0  0  0  0  0  0
    1.9400    4.3470   50.1860 S   0  0  0  0  0  0  0  0  0  0  0  0
  1  7  2  0
  1  9  1  0
  2  8  1  0
  2  9  2  0
  3  5  2  0
  3 10  1  0
  4  6  1  0
  4 10  2  0
  5 11  1  0
  6 11  2  0
  7 12  1  0
  8 12  2  0
  9 18  1  0
 10 21  1  0
 11 24  1  0
 12 25  1  0
 13 20  1  0
 13 22  1  0
 13 23  2  0
 14 16  1  0
 14 21  1  0
 15 17  1  0
 15 21  1  0
 16 22  1  0
 17 22  1  0
 19 24  1  0
 20 25  1  0
M  END
>  <washed_aromatic_smiles>  (224) 
Cc1ccc(cc1)SCC(=O)N2CCN(CC2)c3ccc(cc3)OC

>  <name>  (224) 
neg189802

$$$$
neg182537
     RDKit          3D

 25 26  0  0  0  0  0  0  0  0999 V2000
    3.5940    4.2260   48.3660 C   0  0  0  0  0  0  0  0  0  0  0  0
    1.9020    5.1350   49.7880 C   0  0  0  0  0  0  0  0  0  0  0  0
    2.7050    1.6400   51.1980 C   0  0  0  0  0  0  0  0  0  0  0  0
    0.6090    0.4250   51.3380 C   0  0  0  0  0  0  0  0  0  0  0  0
    2.6260    3.5760   47.6620 C   0  0  0  0  0  0  0  0  0  0  0  0
    0.9530    4.5330   49.0250 C   0  0  0  0  0  0  0  0  0  0  0  0
    3.0300    1.2500   52.4830 C   0  0  0  0  0  0  0  0  0  0  0  0
    0.9430    0.0430   52.6110 C   0  0  0  0  0  0  0  0  0  0  0  0
    3.2100    5.0010   49.4290 C   0  0  0  0  0  0  0  0  0  0  0  0
    1.5710    1.0960   50.6050 C   0  0  0  0  0  0  0  0  0  0  0  0
    1.2910    3.6490   47.9880 C   0  0  0  0  0  0  0  0  0  0  0  0
    2.1790    0.3770   53.1490 C   0  0  0  0  0  0  0  0  0  0  0  0
    3.5360    1.3040   56.1700 C   0  0  0  0  0  0  0  0  0  0  0  0
    0.8360    0.2740   48.4050 C   0  0  0  0  0  0  0  0  0  0  0  0
    4.1330    5.8480   50.1370 C   0  0  0  0  0  0  0  0  0  0  0  0
    4.6160    1.7150   57.1410 C   0  0  0  0  0  0  0  0  0  0  0  0
    0.5740    0.8250   47.0400 C   0  0  0  0  0  0  0  0  0  0  0  0
    1.4690    1.1560   49.2330 N   0  0  0  0  0  0  0  0  0  0  0  0
    3.7600    0.1660   55.4740 N   0  0  0  0  0  0  0  0  0  0  0  0
    2.5130    1.9240   56.0110 O   0  0  0  0  0  0  0  0  0  0  0  0
    0.4960   -0.8370   48.7610 O   0  0  0  0  0  0  0  0  0  0  0  0
    1.5440   -1.0040   55.1990 O   0  0  0  0  0  0  0  0  0  0  0  0
    3.3020   -1.7320   53.8790 O   0  0  0  0  0  0  0  0  0  0  0  0
    0.1800    2.5890   47.1010 S   0  0  0  0  0  0  0  0  0  0  0  0
    2.6770   -0.6470   54.4800 S   0  0  0  0  0  0  0  0  0  0  0  0
  1  5  2  0
  1  9  1  0
  2  6  1  0
  2  9  2  0
  3  7  2  0
  3 10  1  0
  4  8  1  0
  4 10  2  0
  5 11  1  0
  6 11  2  0
  7 12  1  0
  8 12  2  0
  9 15  1  0
 10 18  1  0
 11 24  1  0
 12 25  1  0
 13 16  1  0
 13 19  1  0
 13 20  2  0
 14 17  1  0
 14 18  1  0
 14 21  2  0
 17 24  1  0
 19 25  1  0
 22 25  2  0
 23 25  2  0
M  END
>  <washed_aromatic_smiles>  (225) 
Cc1ccc(cc1)SCC(=O)Nc2ccc(cc2)S(=O)(=O)NC(=O)C

>  <name>  (225) 
neg182537

$$$$
neg257864
     RDKit          3D

 25 27  0  0  0  0  0  0  0  0999 V2000
    2.9540    1.1940   51.7780 C   0  0  0  0  0  0  0  0  0  0  0  0
    0.8560    0.7890   52.8550 C   0  0  0  0  0  0  0  0  0  0  0  0
    3.5450    0.3930   52.6850 C   0  0  0  0  0  0  0  0  0  0  0  0
    1.4730   -0.0040   53.7930 C   0  0  0  0  0  0  0  0  0  0  0  0
    1.6170    1.4240   51.8870 C   0  0  0  0  0  0  0  0  0  0  0  0
    1.6370    3.1100   50.0060 C   0  0  0  0  0  0  0  0  0  0  0  0
    1.2660    2.7330   48.7150 C   0  0  0  0  0  0  0  0  0  0  0  0
    2.8500   -0.1070   53.7890 C   0  0  0  0  0  0  0  0  0  0  0  0
    1.0880    2.1360   50.8090 C   0  0  0  0  0  0  0  0  0  0  0  0
    0.4370    1.6910   48.8010 C   0  0  0  0  0  0  0  0  0  0  0  0
    2.4430    4.2490   50.3850 C   0  0  0  0  0  0  0  0  0  0  0  0
    1.4320    3.2770   47.4500 C   0  0  0  0  0  0  0  0  0  0  0  0
   -0.2110    0.8240   47.8070 C   0  0  0  0  0  0  0  0  0  0  0  0
   -0.6630    0.3550   50.3220 C   0  0  0  0  0  0  0  0  0  0  0  0
    3.4830   -0.6510   55.0370 C   0  0  0  0  0  0  0  0  0  0  0  0
    2.8810    5.9780   52.0810 C   0  0  0  0  0  0  0  0  0  0  0  0
    1.1180    1.2650   45.2610 C   0  0  0  0  0  0  0  0  0  0  0  0
    0.2630    1.3910   50.0710 N   0  0  0  0  0  0  0  0  0  0  0  0
    3.2640    4.7850   49.6520 O   0  0  0  0  0  0  0  0  0  0  0  0
    1.3460    4.4690   47.3530 O   0  0  0  0  0  0  0  0  0  0  0  0
    0.0470   -1.4080   48.6540 O   0  0  0  0  0  0  0  0  0  0  0  0
   -2.2760   -0.5730   48.5110 O   0  0  0  0  0  0  0  0  0  0  0  0
    2.2490    4.7580   51.6240 O   0  0  0  0  0  0  0  0  0  0  0  0
    1.3220    2.3360   46.4030 O   0  0  0  0  0  0  0  0  0  0  0  0
   -0.8930   -0.3830   48.7530 S   0  0  0  0  0  0  0  0  0  0  0  0
  1  3  2  0
  1  5  1  0
  2  4  1  0
  2  5  2  0
  3  8  1  0
  4  8  2  0
  5  9  1  0
  6  7  1  0
  6  9  2  0
  6 11  1  0
  7 10  2  0
  7 12  1  0
  8 15  1  0
  9 18  1  0
 10 13  1  0
 10 18  1  0
 11 19  2  0
 11 23  1  0
 12 20  2  0
 12 24  1  0
 13 25  1  0
 14 18  1  0
 14 25  1  0
 16 23  1  0
 17 24  1  0
 21 25  2  0
 22 25  2  0
M  END
>  <washed_aromatic_smiles>  (226) 
Cc1ccc(cc1)c2c(c(c3n2CS(=O)(=O)C3)C(=O)OC)C(=O)OC

>  <name>  (226) 
neg257864

$$$$
neg284638
     RDKit          3D

 30 33  0  0  0  0  0  0  0  0999 V2000
    2.4620    9.3000   55.6810 C   0  0  0  0  0  0  0  0  0  0  0  0
    3.9780    9.8410   53.8870 C   0  0  0  0  0  0  0  0  0  0  0  0
    1.2060    5.1990   50.4040 C   0  0  0  0  0  0  0  0  0  0  0  0
    2.6680    5.3510   52.2960 C   0  0  0  0  0  0  0  0  0  0  0  0
    3.2920    9.9510   56.5800 C   0  0  0  0  0  0  0  0  0  0  0  0
    4.8030   10.5030   54.7900 C   0  0  0  0  0  0  0  0  0  0  0  0
    0.2190    0.3990   51.4170 C   0  0  0  0  0  0  0  0  0  0  0  0
    1.4830   -0.9380   49.8690 C   0  0  0  0  0  0  0  0  0  0  0  0
    1.6060    3.8720   50.2080 C   0  0  0  0  0  0  0  0  0  0  0  0
    2.9160    4.0230   52.2000 C   0  0  0  0  0  0  0  0  0  0  0  0
   -0.7890    0.5270   50.4810 C   0  0  0  0  0  0  0  0  0  0  0  0
    0.5070   -0.7740   48.9060 C   0  0  0  0  0  0  0  0  0  0  0  0
    2.7660    9.2770   54.3150 C   0  0  0  0  0  0  0  0  0  0  0  0
    1.7270    5.9510   51.4780 C   0  0  0  0  0  0  0  0  0  0  0  0
    4.4450   10.5880   56.1360 C   0  0  0  0  0  0  0  0  0  0  0  0
    1.3570   -0.3430   51.1060 C   0  0  0  0  0  0  0  0  0  0  0  0
    2.4340    3.2690   51.1600 C   0  0  0  0  0  0  0  0  0  0  0  0
   -0.6660   -0.1130   49.2480 C   0  0  0  0  0  0  0  0  0  0  0  0
    1.8380    8.6810   53.3750 C   0  0  0  0  0  0  0  0  0  0  0  0
    1.3490    7.2370   51.9980 C   0  0  0  0  0  0  0  0  0  0  0  0
    2.8980    1.0620   52.2690 C   0  0  0  0  0  0  0  0  0  0  0  0
    5.2680   11.3760   57.1240 C   0  0  0  0  0  0  0  0  0  0  0  0
   -3.0660   -0.7170   49.1320 C   0  0  0  0  0  0  0  0  0  0  0  0
    2.5360   -0.3660   52.0250 C   0  0  0  0  0  0  0  0  0  0  0  0
    0.5430    8.6230   53.3640 N   0  0  0  0  0  0  0  0  0  0  0  0
    0.2170    7.6690   52.4430 N   0  0  0  0  0  0  0  0  0  0  0  0
    2.7670    1.8990   51.1430 N   0  0  0  0  0  0  0  0  0  0  0  0
    3.0960    1.4420   53.4030 O   0  0  0  0  0  0  0  0  0  0  0  0
    2.3360    7.9610   52.4380 O   0  0  0  0  0  0  0  0  0  0  0  0
   -1.7870   -0.3260   48.4740 O   0  0  0  0  0  0  0  0  0  0  0  0
  1  5  2  0
  1 13  1  0
  2  6  1  0
  2 13  2  0
  3  9  2  0
  3 14  1  0
  4 10  1  0
  4 14  2  0
  5 15  1  0
  6 15  2  0
  7 11  2  0
  7 16  1  0
  8 12  1  0
  8 16  2  0
  9 17  1  0
 10 17  2  0
 11 18  1  0
 12 18  2  0
 13 19  1  0
 14 20  1  0
 15 22  1  0
 16 24  1  0
 17 27  1  0
 18 30  1  0
 19 25  2  0
 19 29  1  0
 20 26  2  0
 20 29  1  0
 21 24  1  0
 21 27  1  0
 21 28  2  0
 23 30  1  0
 25 26  1  0
M  END
>  <washed_aromatic_smiles>  (227) 
Cc1ccc(cc1)c2nnc(o2)c3ccc(cc3)NC(=O)Cc4ccc(cc4)OC

>  <name>  (227) 
neg284638

$$$$
neg53424
     RDKit          3D

 30 32  0  0  0  0  0  0  0  0999 V2000
    5.1100    1.3630   60.7420 C   0  0  0  0  0  0  0  0  0  0  0  0
    5.3320    2.1840   59.6430 C   0  0  0  0  0  0  0  0  0  0  0  0
    4.7750    0.0270   60.5540 C   0  0  0  0  0  0  0  0  0  0  0  0
    3.4000    8.5170   55.0920 C   0  0  0  0  0  0  0  0  0  0  0  0
    2.1570    8.8430   55.6240 C   0  0  0  0  0  0  0  0  0  0  0  0
    5.2230    1.6690   58.3550 C   0  0  0  0  0  0  0  0  0  0  0  0
    4.6690   -0.4890   59.2660 C   0  0  0  0  0  0  0  0  0  0  0  0
    3.4880    7.9000   53.8450 C   0  0  0  0  0  0  0  0  0  0  0  0
    2.6400    0.9930   50.8730 C   0  0  0  0  0  0  0  0  0  0  0  0
    0.9990    8.5360   54.9140 C   0  0  0  0  0  0  0  0  0  0  0  0
    2.8160    0.3510   52.1100 C   0  0  0  0  0  0  0  0  0  0  0  0
    2.9390    2.4760   53.0870 C   0  0  0  0  0  0  0  0  0  0  0  0
    2.8280    3.1740   51.8990 C   0  0  0  0  0  0  0  0  0  0  0  0
    4.8860    0.3280   58.1560 C   0  0  0  0  0  0  0  0  0  0  0  0
    2.6530    2.3930   50.7450 C   0  0  0  0  0  0  0  0  0  0  0  0
    2.3380    7.6170   53.1060 C   0  0  0  0  0  0  0  0  0  0  0  0
    1.1130    7.9530   53.6640 C   0  0  0  0  0  0  0  0  0  0  0  0
    2.9640    1.1190   53.2600 C   0  0  0  0  0  0  0  0  0  0  0  0
    2.9420    4.6550   52.0820 C   0  0  0  0  0  0  0  0  0  0  0  0
    2.4760    3.0110   49.3720 C   0  0  0  0  0  0  0  0  0  0  0  0
    0.8980    5.2570   50.8860 C   0  0  0  0  0  0  0  0  0  0  0  0
    4.7930   -0.2670   56.7620 C   0  0  0  0  0  0  0  0  0  0  0  0
    2.3820    7.0250   51.7080 C   0  0  0  0  0  0  0  0  0  0  0  0
    4.3430    0.6750   55.7440 N   0  0  0  0  0  0  0  0  0  0  0  0
    2.1340    5.5930   51.5220 N   0  0  0  0  0  0  0  0  0  0  0  0
    3.7600    5.1250   52.8700 O   0  0  0  0  0  0  0  0  0  0  0  0
    2.1350    1.6590   55.6390 O   0  0  0  0  0  0  0  0  0  0  0  0
    2.3470   -0.6930   55.0380 O   0  0  0  0  0  0  0  0  0  0  0  0
   -0.0160    7.7330   52.9640 F   0  0  0  0  0  0  0  0  0  0  0  0
    2.8700    0.6300   55.0080 S   0  0  0  0  0  0  0  0  0  0  0  0
  1  2  2  0
  1  3  1  0
  2  6  1  0
  3  7  2  0
  4  5  2  0
  4  8  1  0
  5 10  1  0
  6 14  2  0
  7 14  1  0
  8 16  2  0
  9 11  2  0
  9 15  1  0
 10 17  2  0
 11 18  1  0
 12 13  1  0
 12 18  2  0
 13 15  2  0
 13 19  1  0
 14 22  1  0
 15 20  1  0
 16 17  1  0
 16 23  1  0
 17 29  1  0
 18 30  1  0
 19 25  1  0
 19 26  2  0
 21 25  1  0
 22 24  1  0
 23 25  1  0
 24 30  1  0
 27 30  2  0
 28 30  2  0
M  END
>  <washed_aromatic_smiles>  (228) 
Cc1ccc(cc1C(=O)N(C)Cc2ccccc2F)S(=O)(=O)NCc3ccccc3

>  <name>  (228) 
neg53424

$$$$
neg33161
     RDKit          3D

 29 31  0  0  0  0  0  0  0  0999 V2000
    3.1950    4.1770   48.8640 C   0  0  0  0  0  0  0  0  0  0  0  0
    2.5630    1.2320   52.5500 C   0  0  0  0  0  0  0  0  0  0  0  0
    1.1350   -0.3850   53.5730 C   0  0  0  0  0  0  0  0  0  0  0  0
    3.4470    1.0440   53.5570 C   0  0  0  0  0  0  0  0  0  0  0  0
    2.0220   -0.5170   54.6260 C   0  0  0  0  0  0  0  0  0  0  0  0
    2.5910    2.9620   49.0860 C   0  0  0  0  0  0  0  0  0  0  0  0
    1.2840    3.9680   50.7810 C   0  0  0  0  0  0  0  0  0  0  0  0
    1.8640    5.2380   50.6090 C   0  0  0  0  0  0  0  0  0  0  0  0
    2.8530    5.3090   49.5940 C   0  0  0  0  0  0  0  0  0  0  0  0
    1.3070    0.5960   52.5610 C   0  0  0  0  0  0  0  0  0  0  0  0
    3.1580    0.2670   54.6690 C   0  0  0  0  0  0  0  0  0  0  0  0
    1.6080    2.8220   50.0370 C   0  0  0  0  0  0  0  0  0  0  0  0
    1.2010    6.3340   51.4230 C   0  0  0  0  0  0  0  0  0  0  0  0
    3.2690    7.9340   55.2580 C   0  0  0  0  0  0  0  0  0  0  0  0
    4.2870    8.6400   54.3650 C   0  0  0  0  0  0  0  0  0  0  0  0
    1.9530    8.7190   55.3180 C   0  0  0  0  0  0  0  0  0  0  0  0
    3.7010    8.9470   52.9880 C   0  0  0  0  0  0  0  0  0  0  0  0
    0.7800    8.1800   54.4580 C   0  0  0  0  0  0  0  0  0  0  0  0
    3.1280    7.7010   52.2530 C   0  0  0  0  0  0  0  0  0  0  0  0
    0.8370    8.3480   52.9340 C   0  0  0  0  0  0  0  0  0  0  0  0
    3.6290    6.4790   49.0980 C   0  0  0  0  0  0  0  0  0  0  0  0
    4.7310   -0.7930   56.3720 C   0  0  0  0  0  0  0  0  0  0  0  0
    1.7310    7.3700   52.2410 N   0  0  0  0  0  0  0  0  0  0  0  0
    0.3740    0.8680   51.6450 N   0  0  0  0  0  0  0  0  0  0  0  0
   -0.0180    6.3210   51.4480 O   0  0  0  0  0  0  0  0  0  0  0  0
    2.0220    0.2150   49.9570 O   0  0  0  0  0  0  0  0  0  0  0  0
   -0.1240    1.0000   49.2150 O   0  0  0  0  0  0  0  0  0  0  0  0
    3.9820    0.3160   55.8040 O   0  0  0  0  0  0  0  0  0  0  0  0
    0.9340    1.1150   50.1580 S   0  0  2  0  0  0  0  0  0  0  0  0
  1  6  2  0
  1  9  1  0
  2  4  2  0
  2 10  1  0
  3  5  1  0
  3 10  2  0
  4 11  1  0
  5 11  2  0
  6 12  1  0
  7  8  1  0
  7 12  2  0
  8  9  2  0
  8 13  1  0
  9 21  1  0
 10 24  1  0
 11 28  1  0
 12 29  1  0
 13 23  1  0
 13 25  2  0
 14 15  1  0
 14 16  1  0
 15 17  1  0
 16 18  1  0
 17 19  1  0
 18 20  1  0
 19 23  1  0
 20 23  1  0
 22 28  1  0
 24 29  2  0
 26 29  2  0
 29 27  1  6
M  CHG  1  27  -1
M  END
>  <washed_aromatic_smiles>  (229) 
Cc1ccc(cc1C(=O)N2CCCCCCC2)S(=O)(=O)Nc3ccc(cc3)OC

>  <name>  (229) 
neg33161

$$$$
neg58715
     RDKit          3D

 30 33  0  0  0  0  0  0  0  0999 V2000
    4.9470    9.5910   56.2860 C   0  0  0  0  0  0  0  0  0  0  0  0
    3.6760    9.3360   56.7870 C   0  0  0  0  0  0  0  0  0  0  0  0
    5.1640    9.5780   54.9120 C   0  0  0  0  0  0  0  0  0  0  0  0
    2.6300    9.0500   55.9170 C   0  0  0  0  0  0  0  0  0  0  0  0
    4.1170    9.3020   54.0440 C   0  0  0  0  0  0  0  0  0  0  0  0
    3.4080    1.8380   51.6700 C   0  0  0  0  0  0  0  0  0  0  0  0
    3.1240    0.7270   50.9190 C   0  0  0  0  0  0  0  0  0  0  0  0
    1.8390    2.0790   49.4020 C   0  0  0  0  0  0  0  0  0  0  0  0
    2.1710    3.2380   50.1260 C   0  0  0  0  0  0  0  0  0  0  0  0
    2.8460    9.0120   54.5410 C   0  0  0  0  0  0  0  0  0  0  0  0
    2.8510    3.0660   51.3440 C   0  0  0  0  0  0  0  0  0  0  0  0
    2.2270    0.8190   49.8640 C   0  0  0  0  0  0  0  0  0  0  0  0
    1.7540    4.5550   49.6140 C   0  0  0  0  0  0  0  0  0  0  0  0
   -2.1550    0.0130   50.2780 C   0  0  0  0  0  0  0  0  0  0  0  0
   -2.1790   -0.3490   48.7920 C   0  0  0  0  0  0  0  0  0  0  0  0
   -0.7210    0.2130   50.7070 C   0  0  0  0  0  0  0  0  0  0  0  0
   -0.7870    0.0570   48.3840 C   0  0  0  0  0  0  0  0  0  0  0  0
    0.4930    6.0190   51.1150 C   0  0  0  0  0  0  0  0  0  0  0  0
    2.9260    6.5080   50.6160 C   0  0  0  0  0  0  0  0  0  0  0  0
    0.4950    7.1880   52.1030 C   0  0  0  0  0  0  0  0  0  0  0  0
    2.9300    7.3970   51.8890 C   0  0  0  0  0  0  0  0  0  0  0  0
    2.9360    4.0890   52.4390 C   0  0  0  0  0  0  0  0  0  0  0  0
    1.6930    8.7060   53.6050 C   0  0  0  0  0  0  0  0  0  0  0  0
    1.7370    5.6680   50.4350 N   0  0  0  0  0  0  0  0  0  0  0  0
    1.7590    7.4200   52.8270 N   0  0  0  0  0  0  0  0  0  0  0  0
   -0.0850   -0.2600   49.5590 N   0  0  0  0  0  0  0  0  0  0  0  0
    1.3740    4.7040   48.4580 O   0  0  0  0  0  0  0  0  0  0  0  0
    1.5300   -1.2120   48.1220 O   0  0  0  0  0  0  0  0  0  0  0  0
    1.7580   -1.6130   50.5070 O   0  0  0  0  0  0  0  0  0  0  0  0
    1.3990   -0.7290   49.4640 S   0  0  0  0  0  0  0  0  0  0  0  0
  1  2  2  0
  1  3  1  0
  2  4  1  0
  3  5  2  0
  4 10  2  0
  5 10  1  0
  6  7  2  0
  6 11  1  0
  7 12  1  0
  8  9  1  0
  8 12  2  0
  9 11  2  0
  9 13  1  0
 10 23  1  0
 11 22  1  0
 12 30  1  0
 13 24  1  0
 13 27  2  0
 14 15  1  0
 14 16  1  0
 15 17  1  0
 16 26  1  0
 17 26  1  0
 18 20  1  0
 18 24  1  0
 19 21  1  0
 19 24  1  0
 20 25  1  0
 21 25  1  0
 23 25  1  0
 26 30  1  0
 28 30  2  0
 29 30  2  0
M  CHG  1  25   1
M  END
>  <washed_aromatic_smiles>  (230) 
Cc1ccc(cc1C(=O)N2CCN(CC2)Cc3ccccc3)S(=O)(=O)N4CCCC4

>  <name>  (230) 
neg58715

$$$$
neg19589
     RDKit          3D

 27 29  0  0  0  0  0  0  0  0999 V2000
    0.2880   -0.2680   48.6860 C   0  0  0  0  0  0  0  0  0  0  0  0
    1.0640   -0.1440   49.8360 C   0  0  0  0  0  0  0  0  0  0  0  0
    0.1910    0.7880   47.7840 C   0  0  0  0  0  0  0  0  0  0  0  0
    1.2170    8.2260   53.9110 C   0  0  0  0  0  0  0  0  0  0  0  0
    1.7370    1.0420   50.0930 C   0  0  0  0  0  0  0  0  0  0  0  0
    0.8600    1.9790   48.0320 C   0  0  0  0  0  0  0  0  0  0  0  0
    2.3700    8.7920   54.4600 C   0  0  0  0  0  0  0  0  0  0  0  0
    3.6850    7.1250   53.3900 C   0  0  0  0  0  0  0  0  0  0  0  0
    2.5670    6.6240   52.7380 C   0  0  0  0  0  0  0  0  0  0  0  0
    1.3140    7.1740   53.0030 C   0  0  0  0  0  0  0  0  0  0  0  0
    1.6350    2.0930   49.1880 C   0  0  0  0  0  0  0  0  0  0  0  0
    3.6300    8.2950   54.1310 C   0  0  0  0  0  0  0  0  0  0  0  0
    2.7640    5.6240   51.7060 C   0  0  0  0  0  0  0  0  0  0  0  0
    4.1800   10.1030   58.1180 C   0  0  0  0  0  0  0  0  0  0  0  0
    5.1170    8.9470   58.4240 C   0  0  0  0  0  0  0  0  0  0  0  0
    4.5890   10.5760   56.7370 C   0  0  0  0  0  0  0  0  0  0  0  0
    5.3920    8.3470   57.0530 C   0  0  0  0  0  0  0  0  0  0  0  0
    0.1030    6.6340   52.2740 C   0  0  0  0  0  0  0  0  0  0  0  0
    3.3650    5.4290   49.2440 C   0  0  0  0  0  0  0  0  0  0  0  0
    2.3690    4.4150   48.6890 C   0  0  0  0  0  0  0  0  0  0  0  0
    5.2360    9.4380   56.0980 N   0  0  0  0  0  0  0  0  0  0  0  0
    2.9290    6.1340   50.4430 N   0  0  0  0  0  0  0  0  0  0  0  0
    2.7970    4.4210   51.9270 O   0  0  0  0  0  0  0  0  0  0  0  0
    6.2690    8.3650   54.0890 O   0  0  0  0  0  0  0  0  0  0  0  0
    5.0890   10.4560   53.8100 O   0  0  0  0  0  0  0  0  0  0  0  0
    2.3330    3.2250   49.4830 O   0  0  0  0  0  0  0  0  0  0  0  0
    5.1720    9.1920   54.4640 S   0  0  0  0  0  0  0  0  0  0  0  0
  1  2  2  0
  1  3  1  0
  2  5  1  0
  3  6  2  0
  4  7  2  0
  4 10  1  0
  5 11  2  0
  6 11  1  0
  7 12  1  0
  8  9  1  0
  8 12  2  0
  9 10  2  0
  9 13  1  0
 10 18  1  0
 11 26  1  0
 12 27  1  0
 13 22  1  0
 13 23  2  0
 14 15  1  0
 14 16  1  0
 15 17  1  0
 16 21  1  0
 17 21  1  0
 19 20  1  0
 19 22  1  0
 20 26  1  0
 21 27  1  0
 24 27  2  0
 25 27  2  0
M  END
>  <washed_aromatic_smiles>  (231) 
Cc1ccc(cc1C(=O)NCCOc2ccccc2)S(=O)(=O)N3CCCC3

>  <name>  (231) 
neg19589

$$$$
neg232609
     RDKit          3D

 26 27  0  0  0  0  0  0  0  0999 V2000
    5.6840    9.1960   58.4100 C   0  0  0  0  0  0  0  0  0  0  0  0
    5.4530    7.9650   57.8070 C   0  0  0  0  0  0  0  0  0  0  0  0
    5.0250   10.3300   57.9480 C   0  0  0  0  0  0  0  0  0  0  0  0
    4.5510    7.8680   56.7540 C   0  0  0  0  0  0  0  0  0  0  0  0
    4.1280   10.2320   56.8880 C   0  0  0  0  0  0  0  0  0  0  0  0
    1.5040   -0.3650   50.3200 C   0  0  0  0  0  0  0  0  0  0  0  0
    1.3710    0.6980   49.4350 C   0  0  0  0  0  0  0  0  0  0  0  0
    2.1910    2.1850   51.1590 C   0  0  0  0  0  0  0  0  0  0  0  0
    3.8780    8.9960   56.2910 C   0  0  0  0  0  0  0  0  0  0  0  0
    1.9860   -0.1540   51.6150 C   0  0  0  0  0  0  0  0  0  0  0  0
    2.2880    1.1310   52.0490 C   0  0  0  0  0  0  0  0  0  0  0  0
    1.7590    1.9660   49.8530 C   0  0  0  0  0  0  0  0  0  0  0  0
    3.2350    8.7350   53.7640 C   0  0  0  0  0  0  0  0  0  0  0  0
    1.8070    4.3360   49.3040 C   0  0  0  0  0  0  0  0  0  0  0  0
    3.1250    6.2310   51.2010 C   0  0  0  0  0  0  0  0  0  0  0  0
    2.1720   -1.2950   52.5700 C   0  0  0  0  0  0  0  0  0  0  0  0
    2.7190    1.3970   53.4750 C   0  0  0  0  0  0  0  0  0  0  0  0
    2.8220    8.8640   55.2120 C   0  0  0  0  0  0  0  0  0  0  0  0
    2.9010    5.1920   48.7440 C   0  0  0  0  0  0  0  0  0  0  0  0
    3.5960    6.1300   49.7470 C   0  0  0  0  0  0  0  0  0  0  0  0
    1.8250    3.0210   48.9230 N   0  0  0  0  0  0  0  0  0  0  0  0
    2.6380    7.7070   53.0930 N   0  0  0  0  0  0  0  0  0  0  0  0
    2.8280    7.4710   51.6730 N   0  0  0  0  0  0  0  0  0  0  0  0
    3.9930    9.5170   53.2050 O   0  0  0  0  0  0  0  0  0  0  0  0
    0.9910    4.7480   50.1000 O   0  0  0  0  0  0  0  0  0  0  0  0
    3.1350    5.2940   51.9850 O   0  0  0  0  0  0  0  0  0  0  0  0
  1  2  2  0
  1  3  1  0
  2  4  1  0
  3  5  2  0
  4  9  2  0
  5  9  1  0
  6  7  2  0
  6 10  1  0
  7 12  1  0
  8 11  1  0
  8 12  2  0
  9 18  1  0
 10 11  2  0
 10 16  1  0
 11 17  1  0
 12 21  1  0
 13 18  1  0
 13 22  1  0
 13 24  2  0
 14 19  1  0
 14 21  1  0
 14 25  2  0
 15 20  1  0
 15 23  1  0
 15 26  2  0
 19 20  1  0
 22 23  1  0
M  END
>  <washed_aromatic_smiles>  (232) 
Cc1ccc(cc1C)NC(=O)CCC(=O)NNC(=O)Cc2ccccc2

>  <name>  (232) 
neg232609

$$$$
neg100378
     RDKit          3D

 26 28  0  0  0  0  0  0  0  0999 V2000
    5.3150   12.9740   55.9050 C   0  0  0  0  0  0  0  0  0  0  0  0
    1.8360    2.7280   50.7710 C   0  0  0  0  0  0  0  0  0  0  0  0
    1.9810    4.6140   49.2620 C   0  0  0  0  0  0  0  0  0  0  0  0
    4.7520   11.8960   55.2340 C   0  0  0  0  0  0  0  0  0  0  0  0
    1.4860    1.9030   49.7070 C   0  0  0  0  0  0  0  0  0  0  0  0
    1.6140    3.7990   48.2100 C   0  0  0  0  0  0  0  0  0  0  0  0
    4.7600   10.6250   57.2910 C   0  0  0  0  0  0  0  0  0  0  0  0
    5.6020   12.8920   57.2690 C   0  0  0  0  0  0  0  0  0  0  0  0
    5.3520   11.6970   57.9410 C   0  0  0  0  0  0  0  0  0  0  0  0
    1.9890    4.1060   50.5630 C   0  0  0  0  0  0  0  0  0  0  0  0
    4.4310   10.7340   55.9460 C   0  0  0  0  0  0  0  0  0  0  0  0
    1.3310    2.4610   48.4360 C   0  0  0  0  0  0  0  0  0  0  0  0
    3.2730    9.4480   54.1310 C   0  0  0  0  0  0  0  0  0  0  0  0
    0.7830    5.7960   51.7490 C   0  0  0  0  0  0  0  0  0  0  0  0
    3.1440    5.9430   51.6430 C   0  0  0  0  0  0  0  0  0  0  0  0
    0.7650    6.9270   52.8040 C   0  0  0  0  0  0  0  0  0  0  0  0
    3.1350    6.8130   52.8960 C   0  0  0  0  0  0  0  0  0  0  0  0
    6.1780   14.0820   58.0200 C   0  0  0  0  0  0  0  0  0  0  0  0
    5.7020   11.5580   59.3870 C   0  0  0  0  0  0  0  0  0  0  0  0
    0.5600    0.3700   47.3350 C   0  0  0  0  0  0  0  0  0  0  0  0
    2.0170    8.6030   53.9940 C   0  0  0  0  0  0  0  0  0  0  0  0
    2.0350    4.9940   51.6610 N   0  0  0  0  0  0  0  0  0  0  0  0
    1.9990    7.7150   52.8430 N   0  0  0  0  0  0  0  0  0  0  0  0
    3.6740    9.6550   55.4250 N   0  0  0  0  0  0  0  0  0  0  0  0
    3.8520    9.9670   53.1960 O   0  0  0  0  0  0  0  0  0  0  0  0
    0.8960    1.7530   47.3450 O   0  0  0  0  0  0  0  0  0  0  0  0
  1  4  2  0
  1  8  1  0
  2  5  2  0
  2 10  1  0
  3  6  1  0
  3 10  2  0
  4 11  1  0
  5 12  1  0
  6 12  2  0
  7  9  1  0
  7 11  2  0
  8  9  2  0
  8 18  1  0
  9 19  1  0
 10 22  1  0
 11 24  1  0
 12 26  1  0
 13 21  1  0
 13 24  1  0
 13 25  2  0
 14 16  1  0
 14 22  1  0
 15 17  1  0
 15 22  1  0
 16 23  1  0
 17 23  1  0
 20 26  1  0
 21 23  1  0
M  END
>  <washed_aromatic_smiles>  (233) 
Cc1ccc(cc1C)NC(=O)CN2CCN(CC2)c3ccc(cc3)OC

>  <name>  (233) 
neg100378

$$$$
neg45111
     RDKit          3D

 35 37  0  0  0  0  0  0  0  0999 V2000
    0.9450   -0.4920   48.7320 C   0  0  0  0  0  0  0  0  0  0  0  0
    4.8190    1.9360   58.2060 C   0  0  0  0  0  0  0  0  0  0  0  0
    3.5270    7.2960   54.3310 C   0  0  0  0  0  0  0  0  0  0  0  0
    1.3490   -0.4390   50.0650 C   0  0  0  0  0  0  0  0  0  0  0  0
    4.2420    2.0160   56.9450 C   0  0  0  0  0  0  0  0  0  0  0  0
    3.7670    6.4550   53.2560 C   0  0  0  0  0  0  0  0  0  0  0  0
    1.1280    1.8910   48.5590 C   0  0  0  0  0  0  0  0  0  0  0  0
    4.5330   -0.3580   56.6630 C   0  0  0  0  0  0  0  0  0  0  0  0
    1.6930    7.1130   52.2530 C   0  0  0  0  0  0  0  0  0  0  0  0
    0.8760    0.6720   47.9540 C   0  0  0  0  0  0  0  0  0  0  0  0
    5.2040    0.7080   58.7340 C   0  0  0  0  0  0  0  0  0  0  0  0
    2.3650    8.0480   54.3840 C   0  0  0  0  0  0  0  0  0  0  0  0
    5.0440   -0.4490   57.9610 C   0  0  0  0  0  0  0  0  0  0  0  0
    1.4580    7.9780   53.3140 C   0  0  0  0  0  0  0  0  0  0  0  0
    1.6880    0.7870   50.6500 C   0  0  0  0  0  0  0  0  0  0  0  0
    1.6140    1.9440   49.8550 C   0  0  0  0  0  0  0  0  0  0  0  0
    4.0970    0.8700   56.1740 C   0  0  0  0  0  0  0  0  0  0  0  0
    2.8600    6.3710   52.2320 C   0  0  0  0  0  0  0  0  0  0  0  0
    0.6920    0.6720   46.5140 C   0  0  0  0  0  0  0  0  0  0  0  0
    2.4610   -0.0800   52.9170 C   0  0  0  0  0  0  0  0  0  0  0  0
    2.7010    4.0910   49.4560 C   0  0  0  0  0  0  0  0  0  0  0  0
    5.7490    0.6700   60.1510 C   0  0  0  0  0  0  0  0  0  0  0  0
    2.1850    8.9000   55.6190 C   0  0  0  0  0  0  0  0  0  0  0  0
    5.3880   -1.8130   58.5100 C   0  0  0  0  0  0  0  0  0  0  0  0
    0.2410    8.8410   53.1920 C   0  0  0  0  0  0  0  0  0  0  0  0
    2.4030    0.2530   54.3960 C   0  0  0  0  0  0  0  0  0  0  0  0
    2.6680    5.4940   49.9410 C   0  0  0  0  0  0  0  0  0  0  0  0
    2.0600    0.9110   52.0350 N   0  0  0  0  0  0  0  0  0  0  0  0
    2.0560    3.2030   50.2890 N   0  0  0  0  0  0  0  0  0  0  0  0
    0.1080    1.6360   45.9660 O   0  0  0  0  0  0  0  0  0  0  0  0
    2.8070   -1.1780   52.5280 O   0  0  0  0  0  0  0  0  0  0  0  0
    3.2500    3.7590   48.4190 O   0  0  0  0  0  0  0  0  0  0  0  0
    1.2350   -0.2260   45.8350 O   0  0  0  0  0  0  0  0  0  0  0  0
    3.5370    0.9910   54.9050 O   0  0  0  0  0  0  0  0  0  0  0  0
    3.2340    5.5510   51.2280 O   0  0  0  0  0  0  0  0  0  0  0  0
  1  4  2  0
  1 10  1  0
  2  5  2  0
  2 11  1  0
  3  6  2  0
  3 12  1  0
  4 15  1  0
  5 17  1  0
  6 18  1  0
  7 10  2  0
  7 16  1  0
  8 13  1  0
  8 17  2  0
  9 14  1  0
  9 18  2  0
 10 19  1  0
 11 13  2  0
 11 22  1  0
 12 14  2  0
 12 23  1  0
 13 24  1  0
 14 25  1  0
 15 16  2  0
 15 28  1  0
 16 29  1  0
 17 34  1  0
 18 35  1  0
 19 30  1  0
 19 33  2  0
 20 26  1  0
 20 28  1  0
 20 31  2  0
 21 27  1  0
 21 29  1  0
 21 32  2  0
 26 34  1  0
 27 35  1  0
M  CHG  1  30  -1
M  END
>  <washed_aromatic_smiles>  (234) 
Cc1ccc(cc1C)OCC(=O)Nc2ccc(cc2NC(=O)COc3ccc(c(c3)C)C)C(=O)O

>  <name>  (234) 
neg45111

$$$$
neg7899
     RDKit          3D

 26 27  0  0  0  0  0  0  0  0999 V2000
    3.5630   -0.2640   50.9550 C   0  0  0  0  0  0  0  0  0  0  0  0
    2.4270   -0.9460   50.5260 C   0  0  0  0  0  0  0  0  0  0  0  0
    3.4650    1.0770   51.2790 C   0  0  0  0  0  0  0  0  0  0  0  0
    4.8300   10.1530   57.0780 C   0  0  0  0  0  0  0  0  0  0  0  0
    4.1170    9.9210   55.9070 C   0  0  0  0  0  0  0  0  0  0  0  0
    1.2010   -0.3420   50.5140 C   0  0  0  0  0  0  0  0  0  0  0  0
    4.2570    7.5780   56.3030 C   0  0  0  0  0  0  0  0  0  0  0  0
    2.2320    1.7270   51.1620 C   0  0  0  0  0  0  0  0  0  0  0  0
    5.2300    9.0890   57.8810 C   0  0  0  0  0  0  0  0  0  0  0  0
    4.9710    7.7840   57.4740 C   0  0  0  0  0  0  0  0  0  0  0  0
    3.7700    8.6250   55.5350 C   0  0  0  0  0  0  0  0  0  0  0  0
    1.0890    0.9360   51.0010 C   0  0  0  0  0  0  0  0  0  0  0  0
    2.1430    3.1650   51.0890 C   0  0  0  0  0  0  0  0  0  0  0  0
    3.0970    6.1710   51.2850 C   0  0  0  0  0  0  0  0  0  0  0  0
    5.9300    9.3480   59.1840 C   0  0  0  0  0  0  0  0  0  0  0  0
    5.4270    6.5800   58.2820 C   0  0  0  0  0  0  0  0  0  0  0  0
    2.8780    7.6220   51.6370 C   0  0  0  0  0  0  0  0  0  0  0  0
    2.7850    3.8680   52.0550 N   0  0  0  0  0  0  0  0  0  0  0  0
    2.6290    5.2920   52.1890 N   0  0  0  0  0  0  0  0  0  0  0  0
    3.5270    8.1570   52.8360 N   0  0  0  0  0  0  0  0  0  0  0  0
    1.5110    3.7580   50.2140 O   0  0  0  0  0  0  0  0  0  0  0  0
    3.6650    5.7950   50.2630 O   0  0  0  0  0  0  0  0  0  0  0  0
    2.0700    6.9700   54.4180 O   0  0  0  0  0  0  0  0  0  0  0  0
    1.6990    9.2780   54.0500 O   0  0  0  0  0  0  0  0  0  0  0  0
    2.6310    8.2380   54.1900 S   0  0  0  0  0  0  0  0  0  0  0  0
   -0.4650    1.3620   51.5530 Cl  0  0  0  0  0  0  0  0  0  0  0  0
  1  2  2  0
  1  3  1  0
  2  6  1  0
  3  8  2  0
  4  5  2  0
  4  9  1  0
  5 11  1  0
  6 12  2  0
  7 10  1  0
  7 11  2  0
  8 12  1  0
  8 13  1  0
  9 10  2  0
  9 15  1  0
 10 16  1  0
 11 25  1  0
 12 26  1  0
 13 18  1  0
 13 21  2  0
 14 17  1  0
 14 19  1  0
 14 22  2  0
 17 20  1  0
 18 19  1  0
 20 25  1  0
 23 25  2  0
 24 25  2  0
M  END
>  <washed_aromatic_smiles>  (235) 
Cc1ccc(cc1C)S(=O)(=O)NCC(=O)NNC(=O)c2ccccc2Cl

>  <name>  (235) 
neg7899

$$$$
neg252548
     RDKit          3D

 25 27  0  0  0  0  0  0  0  0999 V2000
    2.5920   -0.4150   52.3830 C   0  0  0  0  0  0  0  0  0  0  0  0
    2.4320    0.0790   51.0960 C   0  0  0  0  0  0  0  0  0  0  0  0
    2.7660    0.4690   53.4380 C   0  0  0  0  0  0  0  0  0  0  0  0
    3.6400   10.9670   56.6410 C   0  0  0  0  0  0  0  0  0  0  0  0
    3.0740    9.9470   55.8870 C   0  0  0  0  0  0  0  0  0  0  0  0
    2.4530    1.4530   50.8640 C   0  0  0  0  0  0  0  0  0  0  0  0
    2.7720    1.8400   53.2050 C   0  0  0  0  0  0  0  0  0  0  0  0
    4.5040   10.5400   54.0150 C   0  0  0  0  0  0  0  0  0  0  0  0
    4.6130   11.7940   56.0840 C   0  0  0  0  0  0  0  0  0  0  0  0
    4.9890   11.6120   54.7460 C   0  0  0  0  0  0  0  0  0  0  0  0
    3.5700    9.6950   54.5990 C   0  0  0  0  0  0  0  0  0  0  0  0
    3.2770    6.4900   53.1020 C   0  0  0  0  0  0  0  0  0  0  0  0
    2.6140    2.3620   51.9160 C   0  0  0  0  0  0  0  0  0  0  0  0
    2.9890    7.3920   52.0820 C   0  0  0  0  0  0  0  0  0  0  0  0
    3.4580    7.2450   54.2500 C   0  0  0  0  0  0  0  0  0  0  0  0
    5.2320   12.8900   56.9300 C   0  0  0  0  0  0  0  0  0  0  0  0
    5.9030   12.5760   54.0620 C   0  0  0  0  0  0  0  0  0  0  0  0
    3.0370    7.0570   50.6210 C   0  0  0  0  0  0  0  0  0  0  0  0
    3.9790    7.2250   55.7140 C   0  0  0  0  0  0  0  0  0  0  0  0
    2.9020    8.6090   52.5240 N   0  0  0  0  0  0  0  0  0  0  0  0
    3.2070    8.5290   53.8410 N   0  0  0  0  0  0  0  0  0  0  0  0
    3.4320    5.0360   52.7670 N   0  0  0  0  0  0  0  0  0  0  0  0
    1.2300    4.6040   51.4670 O   0  0  0  0  0  0  0  0  0  0  0  0
    3.2620    4.2420   50.2710 O   0  0  0  0  0  0  0  0  0  0  0  0
    2.5760    4.1480   51.5100 S   0  0  0  0  0  0  0  0  0  0  0  0
  1  2  2  0
  1  3  1  0
  2  6  1  0
  3  7  2  0
  4  5  2  0
  4  9  1  0
  5 11  1  0
  6 13  2  0
  7 13  1  0
  8 10  1  0
  8 11  2  0
  9 10  2  0
  9 16  1  0
 10 17  1  0
 11 21  1  0
 12 14  1  0
 12 15  2  0
 12 22  1  0
 13 25  1  0
 14 18  1  0
 14 20  2  0
 15 19  1  0
 15 21  1  0
 20 21  1  0
 22 25  1  0
 23 25  2  0
 24 25  2  0
M  END
>  <washed_aromatic_smiles>  (236) 
Cc1ccc(cc1C)n2c(c(c(n2)C)NS(=O)(=O)c3ccccc3)C

>  <name>  (236) 
neg252548

$$$$
neg97187
     RDKit          3D

 25 26  0  0  0  0  0  0  0  0999 V2000
    5.6710   12.2390   58.7650 C   0  0  0  0  0  0  0  0  0  0  0  0
    5.3770   10.8780   58.7510 C   0  0  0  0  0  0  0  0  0  0  0  0
    5.6010   12.9760   57.5870 C   0  0  0  0  0  0  0  0  0  0  0  0
    4.9840   10.2590   57.5760 C   0  0  0  0  0  0  0  0  0  0  0  0
    5.2210   12.3560   56.4020 C   0  0  0  0  0  0  0  0  0  0  0  0
    2.7700    4.1440   51.9150 C   0  0  0  0  0  0  0  0  0  0  0  0
    1.4160    5.7490   50.7760 C   0  0  0  0  0  0  0  0  0  0  0  0
    2.5140    3.2090   50.9270 C   0  0  0  0  0  0  0  0  0  0  0  0
    1.1880    4.8520   49.7500 C   0  0  0  0  0  0  0  0  0  0  0  0
    4.8960   10.9930   56.3900 C   0  0  0  0  0  0  0  0  0  0  0  0
    2.3320    5.4600   51.7810 C   0  0  0  0  0  0  0  0  0  0  0  0
    1.7560    3.5890   49.8180 C   0  0  0  0  0  0  0  0  0  0  0  0
    4.4580   10.3530   55.1620 C   0  0  0  0  0  0  0  0  0  0  0  0
    2.8760    6.5200   52.6100 C   0  0  0  0  0  0  0  0  0  0  0  0
    2.5380    8.9850   54.2480 C   0  0  0  0  0  0  0  0  0  0  0  0
    0.4730   -0.8480   48.6040 C   0  0  0  0  0  0  0  0  0  0  0  0
    0.6220    0.5640   48.0620 C   0  0  0  0  0  0  0  0  0  0  0  0
    1.2550    1.3820   49.1710 C   0  0  0  0  0  0  0  0  0  0  0  0
    3.3300    9.5430   55.2730 N   0  0  0  0  0  0  0  0  0  0  0  0
    2.7210    7.8060   52.1770 N   0  0  0  0  0  0  0  0  0  0  0  0
    3.1210    8.9260   53.0010 N   0  0  0  0  0  0  0  0  0  0  0  0
    5.0110   10.5530   54.0850 O   0  0  0  0  0  0  0  0  0  0  0  0
    3.5100    6.3190   53.6450 O   0  0  0  0  0  0  0  0  0  0  0  0
    1.4840    2.7320   48.7990 O   0  0  0  0  0  0  0  0  0  0  0  0
    0.9880    8.3990   54.5550 S   0  0  0  0  0  0  0  0  0  0  0  0
  1  2  2  0
  1  3  1  0
  2  4  1  0
  3  5  2  0
  4 10  2  0
  5 10  1  0
  6  8  2  0
  6 11  1  0
  7  9  1  0
  7 11  2  0
  8 12  1  0
  9 12  2  0
 10 13  1  0
 11 14  1  0
 12 24  1  0
 13 19  1  0
 13 22  2  0
 14 20  1  0
 14 23  2  0
 15 19  1  0
 15 21  1  0
 15 25  2  0
 16 17  1  0
 17 18  1  0
 18 24  1  0
 20 21  1  0
M  END
>  <washed_aromatic_smiles>  (237) 
CCCOc1ccc(cc1)C(=O)NNC(=S)NC(=O)c2ccccc2

>  <name>  (237) 
neg97187

$$$$
neg104313
     RDKit          3D

 29 31  0  0  0  0  0  0  0  0999 V2000
    1.2360    0.0320   51.5580 C   0  0  0  0  0  0  0  0  0  0  0  0
    1.0280   -0.1750   50.1990 C   0  0  0  0  0  0  0  0  0  0  0  0
    1.7280    1.2390   52.0140 C   0  0  0  0  0  0  0  0  0  0  0  0
    3.6630    6.1660   53.0230 C   0  0  0  0  0  0  0  0  0  0  0  0
    1.7200    7.2920   52.2030 C   0  0  0  0  0  0  0  0  0  0  0  0
    1.3730    0.8180   49.3000 C   0  0  0  0  0  0  0  0  0  0  0  0
    4.1010    7.3630   53.5780 C   0  0  0  0  0  0  0  0  0  0  0  0
    2.2060    8.5050   52.7420 C   0  0  0  0  0  0  0  0  0  0  0  0
    2.0410    2.2940   51.1380 C   0  0  0  0  0  0  0  0  0  0  0  0
    2.4830    6.1140   52.2790 C   0  0  0  0  0  0  0  0  0  0  0  0
    1.9460    1.9970   49.7740 C   0  0  0  0  0  0  0  0  0  0  0  0
    3.4460    8.5600   53.3990 C   0  0  0  0  0  0  0  0  0  0  0  0
    2.5080    3.5470   51.7630 C   0  0  0  0  0  0  0  0  0  0  0  0
    5.2020   12.0590   57.0410 C   0  0  0  0  0  0  0  0  0  0  0  0
    5.0200    9.7340   57.7290 C   0  0  0  0  0  0  0  0  0  0  0  0
    4.2440   11.8210   55.8920 C   0  0  0  0  0  0  0  0  0  0  0  0
    4.1080    9.3880   56.5320 C   0  0  0  0  0  0  0  0  0  0  0  0
    3.1700    5.4060   48.4750 C   0  0  0  0  0  0  0  0  0  0  0  0
    5.6830   11.5300   59.3770 C   0  0  0  0  0  0  0  0  0  0  0  0
    1.7170    4.9100   48.2950 C   0  0  0  0  0  0  0  0  0  0  0  0
    1.7220    3.4470   47.9470 C   0  0  0  0  0  0  0  0  0  0  0  0
    4.9020   11.1640   58.1770 N   0  0  0  0  0  0  0  0  0  0  0  0
    4.1080   10.4010   55.4490 N   0  0  0  0  0  0  0  0  0  0  0  0
    2.0740    4.8860   51.5380 N   0  0  0  0  0  0  0  0  0  0  0  0
    3.1500    3.3990   52.7640 O   0  0  0  0  0  0  0  0  0  0  0  0
    5.8350    9.6600   53.7880 O   0  0  0  0  0  0  0  0  0  0  0  0
    4.0750   11.1150   53.0360 O   0  0  0  0  0  0  0  0  0  0  0  0
    2.5350    2.7830   48.8800 O   0  0  0  0  0  0  0  0  0  0  0  0
    4.4550   10.0210   53.8560 S   0  0  0  0  0  0  0  0  0  0  0  0
  1  2  2  0
  1  3  1  0
  2  6  1  0
  3  9  2  0
  4  7  2  0
  4 10  1  0
  5  8  1  0
  5 10  2  0
  6 11  2  0
  7 12  1  0
  8 12  2  0
  9 11  1  0
  9 13  1  0
 10 24  1  0
 11 28  1  0
 12 29  1  0
 13 24  1  0
 13 25  2  0
 14 16  1  0
 14 22  1  0
 15 17  1  0
 15 22  1  0
 16 23  1  0
 17 23  1  0
 18 20  1  0
 19 22  1  0
 20 21  1  0
 21 28  1  0
 23 29  1  0
 26 29  2  0
 27 29  2  0
M  CHG  1  22   1
M  END
>  <washed_aromatic_smiles>  (238) 
CCCOc1ccccc1C(=O)Nc2ccc(cc2)S(=O)(=O)N3CCN(CC3)C

>  <name>  (238) 
neg104313

$$$$
neg268631
     RDKit          3D

 26 27  0  0  0  0  0  0  0  0999 V2000
    1.9350    9.0530   57.2700 C   0  0  0  0  0  0  0  0  0  0  0  0
    1.4510    8.3590   55.0550 C   0  0  0  0  0  0  0  0  0  0  0  0
    3.7780    8.5620   55.8110 C   0  0  0  0  0  0  0  0  0  0  0  0
    3.2840    8.9170   57.0530 C   0  0  0  0  0  0  0  0  0  0  0  0
    1.0070    8.8460   56.2770 C   0  0  0  0  0  0  0  0  0  0  0  0
    2.8170    8.0890   54.8940 C   0  0  0  0  0  0  0  0  0  0  0  0
    5.9800    8.5440   56.7640 C   0  0  0  0  0  0  0  0  0  0  0  0
    5.2020    8.6520   55.6580 C   0  0  0  0  0  0  0  0  0  0  0  0
    5.4130    8.6190   58.0730 C   0  0  0  0  0  0  0  0  0  0  0  0
   -2.0920    7.8340   58.3780 C   0  0  0  0  0  0  0  0  0  0  0  0
    2.6010    8.7160   52.2890 C   0  0  0  0  0  0  0  0  0  0  0  0
    5.5410   11.6550   55.0470 C   0  0  0  0  0  0  0  0  0  0  0  0
   -4.0060    6.5230   57.6180 C   0  0  0  0  0  0  0  0  0  0  0  0
    0.1530    9.3240   52.4450 C   0  0  0  0  0  0  0  0  0  0  0  0
    5.7920    9.1020   54.3470 C   0  0  0  0  0  0  0  0  0  0  0  0
   -0.7650    8.4580   58.0220 C   0  0  0  0  0  0  0  0  0  0  0  0
    2.5240    7.2740   52.6710 C   0  0  0  0  0  0  0  0  0  0  0  0
    5.3600   10.5550   53.9890 C   0  0  0  0  0  0  0  0  0  0  0  0
    6.0240    8.4770   59.1240 O   0  0  0  0  0  0  0  0  0  0  0  0
   -2.5910    7.9720   59.4950 O   0  0  0  0  0  0  0  0  0  0  0  0
    3.6930    9.1680   52.0100 O   0  0  0  0  0  0  0  0  0  0  0  0
    4.1190    8.9610   58.1380 O   0  0  0  0  0  0  0  0  0  0  0  0
   -0.3690    8.7500   56.6130 O   0  0  0  0  0  0  0  0  0  0  0  0
    3.1890    7.1760   53.9350 O   0  0  0  0  0  0  0  0  0  0  0  0
   -2.6350    6.9670   57.5320 O   0  0  0  0  0  0  0  0  0  0  0  0
    1.5830    9.5980   52.4750 O   0  0  0  0  0  0  0  0  0  0  0  0
  1  4  2  0
  1  5  1  0
  2  5  2  0
  2  6  1  0
  3  4  1  0
  3  6  2  0
  3  8  1  0
  4 22  1  0
  5 23  1  0
  6 24  1  0
  7  8  2  0
  7  9  1  0
  8 15  1  0
  9 19  2  0
  9 22  1  0
 10 16  1  0
 10 20  2  0
 10 25  1  0
 11 17  1  0
 11 21  2  0
 11 26  1  0
 12 18  1  0
 13 25  1  0
 14 26  1  0
 15 18  1  0
 16 23  1  0
 17 24  1  0
M  END
>  <washed_aromatic_smiles>  (239) 
CCCc1cc(=O)oc2c1c(cc(c2)OCC(=O)OC)OCC(=O)OC

>  <name>  (239) 
neg268631

$$$$
neg192314
     RDKit          3D

 25 26  0  0  0  0  0  0  0  0999 V2000
    1.9400    8.6230   55.0550 C   0  0  0  0  0  0  0  0  0  0  0  0
    3.1820    8.0390   54.7650 C   0  0  0  0  0  0  0  0  0  0  0  0
    0.8560    8.4410   54.1780 C   0  0  0  0  0  0  0  0  0  0  0  0
    3.3360    7.2820   53.5950 C   0  0  0  0  0  0  0  0  0  0  0  0
    1.0250    7.7250   52.9840 C   0  0  0  0  0  0  0  0  0  0  0  0
    3.6950   -0.5190   55.6260 C   0  0  0  0  0  0  0  0  0  0  0  0
    3.0050    1.7250   55.2560 C   0  0  0  0  0  0  0  0  0  0  0  0
    3.2800   -0.8500   54.3390 C   0  0  0  0  0  0  0  0  0  0  0  0
    2.7400    1.4260   53.9200 C   0  0  0  0  0  0  0  0  0  0  0  0
    3.5990    0.7870   56.0780 C   0  0  0  0  0  0  0  0  0  0  0  0
    2.2670    7.1290   52.6930 C   0  0  0  0  0  0  0  0  0  0  0  0
    2.9100    0.1380   53.4370 C   0  0  0  0  0  0  0  0  0  0  0  0
    1.8020    3.2320   49.9590 C   0  0  0  0  0  0  0  0  0  0  0  0
    4.1820    1.1970   57.4170 C   0  0  0  0  0  0  0  0  0  0  0  0
    0.3660   -0.0260   49.1780 C   0  0  0  0  0  0  0  0  0  0  0  0
    2.4730    6.3340   51.4180 C   0  0  0  0  0  0  0  0  0  0  0  0
    2.5290    1.9390   50.2080 C   0  0  0  0  0  0  0  0  0  0  0  0
    0.4700    0.5950   50.5800 C   0  0  0  0  0  0  0  0  0  0  0  0
    1.3090    5.4070   51.0370 C   0  0  0  0  0  0  0  0  0  0  0  0
    1.7790    4.0400   51.0180 N   0  0  0  0  0  0  0  0  0  0  0  0
    1.8470    0.8930   50.9830 N   0  0  0  0  0  0  0  0  0  0  0  0
    1.3120    3.5100   48.8660 O   0  0  0  0  0  0  0  0  0  0  0  0
    4.1190   -0.1730   51.1430 O   0  0  0  0  0  0  0  0  0  0  0  0
    2.1860   -1.5410   51.5830 O   0  0  0  0  0  0  0  0  0  0  0  0
    2.8050   -0.2720   51.6870 S   0  0  0  0  0  0  0  0  0  0  0  0
  1  2  2  0
  1  3  1  0
  2  4  1  0
  3  5  2  0
  4 11  2  0
  5 11  1  0
  6  8  2  0
  6 10  1  0
  7  9  1  0
  7 10  2  0
  8 12  1  0
  9 12  2  0
 10 14  1  0
 11 16  1  0
 12 25  1  0
 13 17  1  0
 13 20  1  0
 13 22  2  0
 15 18  1  0
 16 19  1  0
 17 21  1  0
 18 21  1  0
 19 20  1  0
 21 25  1  0
 23 25  2  0
 24 25  2  0
M  END
>  <washed_aromatic_smiles>  (240) 
CCN(CC(=O)NCCc1ccccc1)S(=O)(=O)c2ccc(cc2)C

>  <name>  (240) 
neg192314

$$$$
neg3595
     RDKit          3D

 27 29  0  0  0  0  0  0  0  0999 V2000
    3.9890    0.0050   55.9650 C   0  0  0  0  0  0  0  0  0  0  0  0
    3.2240    1.1600   56.0490 C   0  0  0  0  0  0  0  0  0  0  0  0
    3.7710   -0.8500   54.9240 C   0  0  0  0  0  0  0  0  0  0  0  0
    2.2480    1.3730   55.1190 C   0  0  0  0  0  0  0  0  0  0  0  0
    2.8160   -1.3220   52.6630 C   0  0  0  0  0  0  0  0  0  0  0  0
    2.0940   -0.9140   51.5740 C   0  0  0  0  0  0  0  0  0  0  0  0
    0.6650    6.3980   51.4610 C   0  0  0  0  0  0  0  0  0  0  0  0
    2.8920    5.8040   52.2020 C   0  0  0  0  0  0  0  0  0  0  0  0
    0.6790    7.4970   52.3000 C   0  0  0  0  0  0  0  0  0  0  0  0
    2.9140    6.9100   53.0400 C   0  0  0  0  0  0  0  0  0  0  0  0
    1.0790    0.7520   52.9380 C   0  0  0  0  0  0  0  0  0  0  0  0
    2.8630   -0.5770   53.8670 C   0  0  0  0  0  0  0  0  0  0  0  0
    2.0320    0.5370   53.9820 C   0  0  0  0  0  0  0  0  0  0  0  0
    1.2150    0.1760   51.6920 C   0  0  0  0  0  0  0  0  0  0  0  0
    1.7380    5.5160   51.4710 C   0  0  0  0  0  0  0  0  0  0  0  0
    1.7780    7.7070   53.1290 C   0  0  0  0  0  0  0  0  0  0  0  0
    0.4930    0.6720   50.5130 C   0  0  0  0  0  0  0  0  0  0  0  0
    2.4500    3.6690   49.9870 C   0  0  0  0  0  0  0  0  0  0  0  0
   -0.1530    1.1550   47.3110 C   0  0  0  0  0  0  0  0  0  0  0  0
    0.5160    8.4720   54.9210 C   0  0  0  0  0  0  0  0  0  0  0  0
    2.4290    2.1540   49.9880 C   0  0  0  0  0  0  0  0  0  0  0  0
    1.1150    1.2800   48.1420 C   0  0  0  0  0  0  0  0  0  0  0  0
    1.5760    4.2610   50.8480 N   0  0  0  0  0  0  0  0  0  0  0  0
    1.1440    1.5120   49.6080 N   0  0  0  0  0  0  0  0  0  0  0  0
   -0.6730    0.3760   50.2940 O   0  0  0  0  0  0  0  0  0  0  0  0
    3.2170    4.3340   49.3170 O   0  0  0  0  0  0  0  0  0  0  0  0
    1.7000    8.6410   54.1160 O   0  0  0  0  0  0  0  0  0  0  0  0
  1  2  2  0
  1  3  1  0
  2  4  1  0
  3 12  2  0
  4 13  2  0
  5  6  2  0
  5 12  1  0
  6 14  1  0
  7  9  2  0
  7 15  1  0
  8 10  1  0
  8 15  2  0
  9 16  1  0
 10 16  2  0
 11 13  1  0
 11 14  2  0
 12 13  1  0
 14 17  1  0
 15 23  1  0
 16 27  1  0
 17 24  1  0
 17 25  2  0
 18 21  1  0
 18 23  1  0
 18 26  2  0
 19 22  1  0
 20 27  1  0
 21 24  1  0
 22 24  1  0
M  END
>  <washed_aromatic_smiles>  (241) 
CCN(CC(=O)Nc1ccc(cc1)OC)C(=O)c2ccc3ccccc3c2

>  <name>  (241) 
neg3595

$$$$
neg138923
     RDKit          3D

 30 33  0  0  0  0  0  0  0  0999 V2000
    4.2670    9.9020   53.4940 C   0  0  0  0  0  0  0  0  0  0  0  0
    1.0710    0.8540   49.0790 C   0  0  0  0  0  0  0  0  0  0  0  0
    4.7740   10.6920   54.5230 C   0  0  0  0  0  0  0  0  0  0  0  0
    0.1840    0.2200   48.2290 C   0  0  0  0  0  0  0  0  0  0  0  0
    3.5870    8.2080   55.1020 C   0  0  0  0  0  0  0  0  0  0  0  0
   -0.5550    0.7530   50.9250 C   0  0  0  0  0  0  0  0  0  0  0  0
    3.6610    8.6750   53.7860 C   0  0  0  0  0  0  0  0  0  0  0  0
    0.6580    1.1200   50.3880 C   0  0  0  0  0  0  0  0  0  0  0  0
    4.6920   10.2400   55.8380 C   0  0  0  0  0  0  0  0  0  0  0  0
   -1.0640   -0.0850   48.7510 C   0  0  0  0  0  0  0  0  0  0  0  0
    4.1350    8.9820   56.1200 C   0  0  0  0  0  0  0  0  0  0  0  0
   -1.4240    0.1720   50.0520 C   0  0  0  0  0  0  0  0  0  0  0  0
    2.5500    6.6930   52.8160 C   0  0  0  0  0  0  0  0  0  0  0  0
    2.6380    1.7080   51.5640 C   0  0  0  0  0  0  0  0  0  0  0  0
    4.9520   10.6330   58.2270 C   0  0  0  0  0  0  0  0  0  0  0  0
    5.0690    9.1150   58.3410 C   0  0  0  0  0  0  0  0  0  0  0  0
   -3.1680   -0.7240   49.0880 C   0  0  0  0  0  0  0  0  0  0  0  0
    3.3730    5.6190   49.6730 C   0  0  0  0  0  0  0  0  0  0  0  0
    3.3730    5.4290   52.5470 C   0  0  0  0  0  0  0  0  0  0  0  0
    3.0780    2.8460   52.3990 C   0  0  0  0  0  0  0  0  0  0  0  0
    2.6820    4.4160   50.3380 C   0  0  0  0  0  0  0  0  0  0  0  0
    3.2250    7.8770   52.6940 N   0  0  0  0  0  0  0  0  0  0  0  0
    1.3800    1.9100   51.2000 N   0  0  0  0  0  0  0  0  0  0  0  0
    2.7260    4.2840   51.8390 N   0  0  0  0  0  0  0  0  0  0  0  0
    1.4190    6.7050   53.2650 O   0  0  0  0  0  0  0  0  0  0  0  0
    3.3000    0.7400   51.2280 O   0  0  0  0  0  0  0  0  0  0  0  0
    5.1750   11.0510   56.8590 O   0  0  0  0  0  0  0  0  0  0  0  0
    4.1650    8.4750   57.4100 O   0  0  0  0  0  0  0  0  0  0  0  0
   -2.1590   -0.4310   48.1040 O   0  0  0  0  0  0  0  0  0  0  0  0
   -2.6960   -0.2220   50.2930 O   0  0  0  0  0  0  0  0  0  0  0  0
  1  3  2  0
  1  7  1  0
  2  4  2  0
  2  8  1  0
  3  9  1  0
  4 10  1  0
  5  7  2  0
  5 11  1  0
  6  8  2  0
  6 12  1  0
  7 22  1  0
  8 23  1  0
  9 11  2  0
  9 27  1  0
 10 12  2  0
 10 29  1  0
 11 28  1  0
 12 30  1  0
 13 19  1  0
 13 22  1  0
 13 25  2  0
 14 20  1  0
 14 23  1  0
 14 26  2  0
 15 16  1  0
 15 27  1  0
 16 28  1  0
 17 29  1  0
 17 30  1  0
 18 21  1  0
 19 24  1  0
 20 24  1  0
 21 24  1  0
M  END
>  <washed_aromatic_smiles>  (242) 
CCN(CC(=O)Nc1ccc2c(c1)OCCO2)CC(=O)Nc3ccc4c(c3)OCO4

>  <name>  (242) 
neg138923

$$$$
neg176979
     RDKit          3D

 31 32  0  0  0  0  0  0  0  0999 V2000
    3.4860    7.9860   55.0400 C   0  0  0  0  0  0  0  0  0  0  0  0
    4.6580    9.8240   53.9540 C   0  0  0  0  0  0  0  0  0  0  0  0
    3.0540    4.7160   49.5330 C   0  0  0  0  0  0  0  0  0  0  0  0
    1.1970    4.7380   51.0940 C   0  0  0  0  0  0  0  0  0  0  0  0
    3.0200    7.5410   53.8220 C   0  0  0  0  0  0  0  0  0  0  0  0
    4.1970    9.3740   52.7400 C   0  0  0  0  0  0  0  0  0  0  0  0
    3.4260    5.9670   49.9910 C   0  0  0  0  0  0  0  0  0  0  0  0
    1.5500    5.9940   51.5330 C   0  0  0  0  0  0  0  0  0  0  0  0
    4.2680    9.1290   55.0880 C   0  0  0  0  0  0  0  0  0  0  0  0
    1.9290    4.1110   50.0890 C   0  0  0  0  0  0  0  0  0  0  0  0
    3.3710    8.2510   52.6780 C   0  0  0  0  0  0  0  0  0  0  0  0
    2.6820    6.5870   50.9980 C   0  0  0  0  0  0  0  0  0  0  0  0
    4.2430   10.8180   56.7500 C   0  0  0  0  0  0  0  0  0  0  0  0
    1.1470    2.6610   48.2980 C   0  0  0  0  0  0  0  0  0  0  0  0
    6.6240   13.1920   59.5780 C   0  0  0  0  0  0  0  0  0  0  0  0
    5.4950    8.4690   59.4130 C   0  0  0  0  0  0  0  0  0  0  0  0
    1.0260    0.7680   45.2240 C   0  0  0  0  0  0  0  0  0  0  0  0
    1.3060   -0.5350   50.1640 C   0  0  0  0  0  0  0  0  0  0  0  0
    3.9390   10.8470   58.2020 C   0  0  0  0  0  0  0  0  0  0  0  0
    0.3210    1.4380   48.0000 C   0  0  0  0  0  0  0  0  0  0  0  0
    5.7560   12.4000   58.6030 C   0  0  0  0  0  0  0  0  0  0  0  0
    6.0070    9.8580   59.0310 C   0  0  0  0  0  0  0  0  0  0  0  0
    1.3760   -0.2100   46.3370 C   0  0  0  0  0  0  0  0  0  0  0  0
    0.8450   -0.8610   48.7360 C   0  0  0  0  0  0  0  0  0  0  0  0
    4.5780    9.5740   56.3460 N   0  0  0  0  0  0  0  0  0  0  0  0
    1.4550    2.8770   49.6130 N   0  0  0  0  0  0  0  0  0  0  0  0
    5.1150   11.0870   59.0560 N   0  0  0  0  0  0  0  0  0  0  0  0
    1.1300    0.2200   47.7640 N   0  0  0  0  0  0  0  0  0  0  0  0
    4.2610   11.7990   56.0310 O   0  0  0  0  0  0  0  0  0  0  0  0
    1.5770    3.3880   47.4310 O   0  0  0  0  0  0  0  0  0  0  0  0
    3.0400    7.8310   51.4220 O   0  0  0  0  0  0  0  0  0  0  0  0
  1  5  2  0
  1  9  1  0
  2  6  1  0
  2  9  2  0
  3  7  2  0
  3 10  1  0
  4  8  1  0
  4 10  2  0
  5 11  1  0
  6 11  2  0
  7 12  1  0
  8 12  2  0
  9 25  1  0
 10 26  1  0
 11 31  1  0
 12 31  1  0
 13 19  1  0
 13 25  1  0
 13 29  2  0
 14 20  1  0
 14 26  1  0
 14 30  2  0
 15 21  1  0
 16 22  1  0
 17 23  1  0
 18 24  1  0
 19 27  1  0
 20 28  1  0
 21 27  1  0
 22 27  1  0
 23 28  1  0
 24 28  1  0
M  CHG  2  27   1  28   1
M  END
>  <washed_aromatic_smiles>  (243) 
CCN(CC)CC(=O)Nc1ccc(cc1)Oc2ccc(cc2)NC(=O)CN(CC)CC

>  <name>  (243) 
neg176979

$$$$
neg295731
     RDKit          3D

 25 26  0  0  0  0  0  0  0  0999 V2000
    3.0810    1.7080   51.4070 C   0  0  0  0  0  0  0  0  0  0  0  0
    0.7000    1.5070   51.3900 C   0  0  0  0  0  0  0  0  0  0  0  0
    3.2060    0.4260   51.9060 C   0  0  0  0  0  0  0  0  0  0  0  0
    0.8020    0.2410   51.9450 C   0  0  0  0  0  0  0  0  0  0  0  0
    1.8450    2.2710   51.1170 C   0  0  0  0  0  0  0  0  0  0  0  0
    2.0610   -0.2890   52.1810 C   0  0  0  0  0  0  0  0  0  0  0  0
    1.3350    5.8820   51.8010 C   0  0  0  0  0  0  0  0  0  0  0  0
    3.2860    6.6600   53.1820 C   0  0  0  0  0  0  0  0  0  0  0  0
    1.4030    8.2980   52.8750 C   0  0  0  0  0  0  0  0  0  0  0  0
    3.9650    7.7290   54.0500 C   0  0  0  0  0  0  0  0  0  0  0  0
    2.6230    9.2150   52.6650 C   0  0  0  0  0  0  0  0  0  0  0  0
    1.7720    6.8030   52.9770 C   0  0  0  0  0  0  0  0  0  0  0  0
    5.1240   12.9830   56.4810 C   0  0  0  0  0  0  0  0  0  0  0  0
    2.8030    9.2100   56.7440 C   0  0  0  0  0  0  0  0  0  0  0  0
    1.8350    3.7130   50.5840 C   0  0  0  0  0  0  0  0  0  0  0  0
    5.6730   11.6020   56.1580 C   0  0  0  0  0  0  0  0  0  0  0  0
    3.5490   10.5400   56.6190 C   0  0  0  0  0  0  0  0  0  0  0  0
    3.5930    9.1170   53.7570 N   0  0  0  0  0  0  0  0  0  0  0  0
    2.0230    4.7300   51.6300 N   0  0  0  0  0  0  0  0  0  0  0  0
    4.7230   10.5980   55.6920 N   0  0  0  0  0  0  0  0  0  0  0  0
    0.3730    6.1780   51.1070 O   0  0  0  0  0  0  0  0  0  0  0  0
    4.2880   11.5300   53.3810 O   0  0  0  0  0  0  0  0  0  0  0  0
    6.0040    9.8640   53.6440 O   0  0  0  0  0  0  0  0  0  0  0  0
    2.2000   -1.5140   52.7040 F   0  0  0  0  0  0  0  0  0  0  0  0
    4.7080   10.3300   54.0290 S   0  0  0  0  0  0  0  0  0  0  0  0
  1  3  2  0
  1  5  1  0
  2  4  1  0
  2  5  2  0
  3  6  1  0
  4  6  2  0
  5 15  1  0
  6 24  1  0
  7 12  1  0
  7 19  1  0
  7 21  2  0
  8 10  1  0
  8 12  1  0
  9 11  1  0
  9 12  1  0
 10 18  1  0
 11 18  1  0
 13 16  1  0
 14 17  1  0
 15 19  1  0
 16 20  1  0
 17 20  1  0
 18 25  1  0
 20 25  1  0
 22 25  2  0
 23 25  2  0
M  END
>  <washed_aromatic_smiles>  (244) 
CCN(CC)S(=O)(=O)N1CCC(CC1)C(=O)NCc2ccc(cc2)F

>  <name>  (244) 
neg295731

$$$$
neg197798
     RDKit          3D

 29 31  0  0  0  0  0  0  0  0999 V2000
    3.6630    8.9200   55.8380 C   0  0  0  0  0  0  0  0  0  0  0  0
    2.2820    8.8910   55.7090 C   0  0  0  0  0  0  0  0  0  0  0  0
    4.4450    8.1810   54.9630 C   0  0  0  0  0  0  0  0  0  0  0  0
    1.3940    2.7670   49.6950 C   0  0  0  0  0  0  0  0  0  0  0  0
    1.6800    8.1440   54.6940 C   0  0  0  0  0  0  0  0  0  0  0  0
    3.8380    7.3980   53.9860 C   0  0  0  0  0  0  0  0  0  0  0  0
    1.2360    1.6140   50.4250 C   0  0  0  0  0  0  0  0  0  0  0  0
    2.6070    2.5810   52.1870 C   0  0  0  0  0  0  0  0  0  0  0  0
    1.9540    3.8590   50.3250 C   0  0  0  0  0  0  0  0  0  0  0  0
    2.4160    3.8600   51.6630 C   0  0  0  0  0  0  0  0  0  0  0  0
    2.4580    7.3620   53.8420 C   0  0  0  0  0  0  0  0  0  0  0  0
    1.7720    1.5800   51.7050 C   0  0  0  0  0  0  0  0  0  0  0  0
    3.1930    6.0440   47.8980 C   0  0  0  0  0  0  0  0  0  0  0  0
    3.8710    6.4730   49.0920 C   0  0  0  0  0  0  0  0  0  0  0  0
    2.0830    5.0860   48.2640 C   0  0  0  0  0  0  0  0  0  0  0  0
    3.6120    5.3140   49.9090 C   0  0  0  0  0  0  0  0  0  0  0  0
    3.8370   -0.4370   51.1170 C   0  0  0  0  0  0  0  0  0  0  0  0
    3.6670   -0.6920   55.3060 C   0  0  0  0  0  0  0  0  0  0  0  0
    2.9180   -1.2660   52.0530 C   0  0  0  0  0  0  0  0  0  0  0  0
    3.2420    0.0910   54.0880 C   0  0  0  0  0  0  0  0  0  0  0  0
    2.2170    5.0070   49.6710 N   0  0  0  0  0  0  0  0  0  0  0  0
    2.5190    4.9680   52.4560 N   0  0  0  0  0  0  0  0  0  0  0  0
    2.3110   -0.5630   53.1480 N   0  0  0  0  0  0  0  0  0  0  0  0
    2.0900    7.1820   51.3540 O   0  0  0  0  0  0  0  0  0  0  0  0
    0.3530    6.2370   52.7420 O   0  0  0  0  0  0  0  0  0  0  0  0
    0.7430    1.0140   54.0050 O   0  0  0  0  0  0  0  0  0  0  0  0
    0.0200   -0.2000   52.0950 O   0  0  0  0  0  0  0  0  0  0  0  0
    1.7530    6.4220   52.4880 S   0  0  2  0  0  0  0  0  0  0  0  0
    1.0800    0.4080   52.7950 S   0  0  0  0  0  0  0  0  0  0  0  0
  1  2  2  0
  1  3  1  0
  2  5  1  0
  3  6  2  0
  4  7  2  0
  4  9  1  0
  5 11  2  0
  6 11  1  0
  7 12  1  0
  8 10  1  0
  8 12  2  0
  9 10  2  0
  9 21  1  0
 10 22  1  0
 11 28  1  0
 12 29  1  0
 13 14  1  0
 13 15  1  0
 14 16  1  0
 15 21  1  0
 16 21  1  0
 17 19  1  0
 18 20  1  0
 19 23  1  0
 20 23  1  0
 22 28  2  0
 23 29  1  0
 24 28  2  0
 28 25  1  1
 26 29  2  0
 27 29  2  0
M  CHG  1  25  -1
M  END
>  <washed_aromatic_smiles>  (245) 
CCN(CC)S(=O)(=O)c1ccc(c(c1)NS(=O)(=O)c2ccccc2)N3CCCC3

>  <name>  (245) 
neg197798

$$$$
neg223102
     RDKit          3D

 25 26  0  0  0  0  0  0  0  0999 V2000
    0.4940   -0.1270   48.5700 C   0  0  0  0  0  0  0  0  0  0  0  0
    3.4580    6.7440   53.3430 C   0  0  0  0  0  0  0  0  0  0  0  0
    1.7610    8.2490   52.5690 C   0  0  0  0  0  0  0  0  0  0  0  0
    4.1930    7.8280   53.8070 C   0  0  0  0  0  0  0  0  0  0  0  0
    2.5450    9.3240   52.9460 C   0  0  0  0  0  0  0  0  0  0  0  0
    1.1170    0.4010   49.7060 C   0  0  0  0  0  0  0  0  0  0  0  0
    0.3250    0.7990   47.5770 C   0  0  0  0  0  0  0  0  0  0  0  0
    2.2520    6.9520   52.6710 C   0  0  0  0  0  0  0  0  0  0  0  0
    3.7630    9.1280   53.5840 C   0  0  0  0  0  0  0  0  0  0  0  0
    1.4200    1.7370   49.5840 C   0  0  0  0  0  0  0  0  0  0  0  0
    1.5520    5.8790   51.9900 C   0  0  0  0  0  0  0  0  0  0  0  0
    2.0590    2.5850   50.5660 C   0  0  0  0  0  0  0  0  0  0  0  0
    5.3720    8.9730   57.1990 C   0  0  0  0  0  0  0  0  0  0  0  0
    5.6970   12.8690   55.9670 C   0  0  0  0  0  0  0  0  0  0  0  0
    4.1030    9.6240   56.6420 C   0  0  0  0  0  0  0  0  0  0  0  0
    4.4840   12.0340   56.3690 C   0  0  0  0  0  0  0  0  0  0  0  0
    2.3080    4.8650   51.4770 N   0  0  0  0  0  0  0  0  0  0  0  0
    1.7460    3.9140   50.5380 N   0  0  0  0  0  0  0  0  0  0  0  0
    4.3560   10.7330   55.7060 N   0  0  0  0  0  0  0  0  0  0  0  0
    0.3330    5.8750   51.8180 O   0  0  0  0  0  0  0  0  0  0  0  0
    2.8450    2.1720   51.4260 O   0  0  0  0  0  0  0  0  0  0  0  0
    6.1650   10.0390   54.0580 O   0  0  0  0  0  0  0  0  0  0  0  0
    4.5040   11.6360   53.3310 O   0  0  0  0  0  0  0  0  0  0  0  0
    0.9280    2.3460   48.0330 S   0  0  0  0  0  0  0  0  0  0  0  0
    4.8120   10.4820   54.1110 S   0  0  0  0  0  0  0  0  0  0  0  0
  1  6  1  0
  1  7  2  0
  2  4  2  0
  2  8  1  0
  3  5  1  0
  3  8  2  0
  4  9  1  0
  5  9  2  0
  6 10  2  0
  7 24  1  0
  8 11  1  0
  9 25  1  0
 10 12  1  0
 10 24  1  0
 11 17  1  0
 11 20  2  0
 12 18  1  0
 12 21  2  0
 13 15  1  0
 14 16  1  0
 15 19  1  0
 16 19  1  0
 17 18  1  0
 19 25  1  0
 22 25  2  0
 23 25  2  0
M  END
>  <washed_aromatic_smiles>  (246) 
CCN(CC)S(=O)(=O)c1ccc(cc1)C(=O)NNC(=O)c2cccs2

>  <name>  (246) 
neg223102

$$$$
neg190299
     RDKit          3D

 30 32  0  0  0  0  0  0  0  0999 V2000
    3.4110    7.2320   54.1940 C   0  0  0  0  0  0  0  0  0  0  0  0
    2.1030    8.7230   52.8440 C   0  0  0  0  0  0  0  0  0  0  0  0
    2.0080    4.5970   48.8010 C   0  0  0  0  0  0  0  0  0  0  0  0
    1.9660    2.5860   50.1450 C   0  0  0  0  0  0  0  0  0  0  0  0
    2.5890    5.2840   49.8460 C   0  0  0  0  0  0  0  0  0  0  0  0
    2.5270    3.2720   51.2030 C   0  0  0  0  0  0  0  0  0  0  0  0
    4.3020    8.2450   54.4670 C   0  0  0  0  0  0  0  0  0  0  0  0
    2.9980    9.7380   53.1210 C   0  0  0  0  0  0  0  0  0  0  0  0
    0.9040    1.1250   46.1620 C   0  0  0  0  0  0  0  0  0  0  0  0
    0.7500    0.2650   48.3660 C   0  0  0  0  0  0  0  0  0  0  0  0
    1.3710   -0.0930   45.7610 C   0  0  0  0  0  0  0  0  0  0  0  0
    1.2080   -0.9400   47.8940 C   0  0  0  0  0  0  0  0  0  0  0  0
    2.4010    7.4360   53.2650 C   0  0  0  0  0  0  0  0  0  0  0  0
    1.6170    3.2730   48.9760 C   0  0  0  0  0  0  0  0  0  0  0  0
    0.7520    1.3420   47.5060 C   0  0  0  0  0  0  0  0  0  0  0  0
    2.7120    4.6380   51.0650 C   0  0  0  0  0  0  0  0  0  0  0  0
    4.1140    9.5050   53.9110 C   0  0  0  0  0  0  0  0  0  0  0  0
    1.8790    6.2990   52.5620 C   0  0  0  0  0  0  0  0  0  0  0  0
    5.5710   13.2910   56.8890 C   0  0  0  0  0  0  0  0  0  0  0  0
    4.9950   10.3590   58.3510 C   0  0  0  0  0  0  0  0  0  0  0  0
    0.6440    2.7240   47.9750 C   0  0  0  0  0  0  0  0  0  0  0  0
    4.5570   12.3480   56.2430 C   0  0  0  0  0  0  0  0  0  0  0  0
    5.0840   10.0080   56.8530 C   0  0  0  0  0  0  0  0  0  0  0  0
    1.6030   -1.0890   46.6270 N   0  0  0  0  0  0  0  0  0  0  0  0
    2.8760    5.4190   52.1860 N   0  0  0  0  0  0  0  0  0  0  0  0
    5.1960   11.1020   55.8400 N   0  0  0  0  0  0  0  0  0  0  0  0
    0.7070    6.1350   52.2320 O   0  0  0  0  0  0  0  0  0  0  0  0
    6.5960   10.1250   53.9180 O   0  0  0  0  0  0  0  0  0  0  0  0
    5.0500   11.9060   53.4140 O   0  0  0  0  0  0  0  0  0  0  0  0
    5.3500   10.7490   54.1950 S   0  0  0  0  0  0  0  0  0  0  0  0
  1  7  2  0
  1 13  1  0
  2  8  1  0
  2 13  2  0
  3  5  2  0
  3 14  1  0
  4  6  1  0
  4 14  2  0
  5 16  1  0
  6 16  2  0
  7 17  1  0
  8 17  2  0
  9 11  2  0
  9 15  1  0
 10 12  1  0
 10 15  2  0
 11 24  1  0
 12 24  2  0
 13 18  1  0
 14 21  1  0
 15 21  1  0
 16 25  1  0
 17 30  1  0
 18 25  1  0
 18 27  2  0
 19 22  1  0
 20 23  1  0
 22 26  1  0
 23 26  1  0
 26 30  1  0
 28 30  2  0
 29 30  2  0
M  END
>  <washed_aromatic_smiles>  (247) 
CCN(CC)S(=O)(=O)c1ccc(cc1)C(=O)Nc2ccc(cc2)Cc3ccncc3

>  <name>  (247) 
neg190299

$$$$
neg88080
     RDKit          3D

 28 29  0  0  0  0  0  0  0  0999 V2000
    5.7450   12.9560   57.3040 C   0  0  0  0  0  0  0  0  0  0  0  0
    5.3170   12.0240   58.2430 C   0  0  0  0  0  0  0  0  0  0  0  0
    5.5180   12.7290   55.9510 C   0  0  0  0  0  0  0  0  0  0  0  0
    4.6380   10.8830   57.8350 C   0  0  0  0  0  0  0  0  0  0  0  0
    4.8500   11.5840   55.5370 C   0  0  0  0  0  0  0  0  0  0  0  0
    2.8080    3.9930   51.8830 C   0  0  0  0  0  0  0  0  0  0  0  0
    1.8200    4.5300   49.7610 C   0  0  0  0  0  0  0  0  0  0  0  0
    2.4340    2.6760   51.7270 C   0  0  0  0  0  0  0  0  0  0  0  0
    1.3770    3.2140   49.6540 C   0  0  0  0  0  0  0  0  0  0  0  0
    4.3750   10.6530   56.4760 C   0  0  0  0  0  0  0  0  0  0  0  0
    2.4330    4.9470   50.9430 C   0  0  0  0  0  0  0  0  0  0  0  0
    1.5650    2.3090   50.7070 C   0  0  0  0  0  0  0  0  0  0  0  0
    3.5800    9.4870   56.0750 C   0  0  0  0  0  0  0  0  0  0  0  0
    2.8750    6.9390   52.4120 C   0  0  0  0  0  0  0  0  0  0  0  0
    3.6200   -0.2110   51.0170 C   0  0  0  0  0  0  0  0  0  0  0  0
    0.7230    0.4810   47.7460 C   0  0  0  0  0  0  0  0  0  0  0  0
    2.2290    8.2600   52.7440 C   0  0  0  0  0  0  0  0  0  0  0  0
    2.4160   -1.0660   50.6050 C   0  0  0  0  0  0  0  0  0  0  0  0
    0.8020   -0.6910   48.7230 C   0  0  0  0  0  0  0  0  0  0  0  0
    2.1810    8.5420   54.2510 C   0  0  0  0  0  0  0  0  0  0  0  0
    2.5220    6.3460   51.2090 N   0  0  0  0  0  0  0  0  0  0  0  0
    3.3560    9.2610   54.7380 N   0  0  0  0  0  0  0  0  0  0  0  0
    1.2690   -0.3470   50.0880 N   0  0  0  0  0  0  0  0  0  0  0  0
    3.0780    8.7170   56.8890 O   0  0  0  0  0  0  0  0  0  0  0  0
    3.6480    6.4140   53.1900 O   0  0  0  0  0  0  0  0  0  0  0  0
    0.6850    0.4840   52.3770 O   0  0  0  0  0  0  0  0  0  0  0  0
   -0.7550    1.0370   50.5250 O   0  0  0  0  0  0  0  0  0  0  0  0
    0.5670    0.8240   50.9960 S   0  0  0  0  0  0  0  0  0  0  0  0
  1  2  2  0
  1  3  1  0
  2  4  1  0
  3  5  2  0
  4 10  2  0
  5 10  1  0
  6  8  2  0
  6 11  1  0
  7  9  1  0
  7 11  2  0
  8 12  1  0
  9 12  2  0
 10 13  1  0
 11 21  1  0
 12 28  1  0
 13 22  1  0
 13 24  2  0
 14 17  1  0
 14 21  1  0
 14 25  2  0
 15 18  1  0
 16 19  1  0
 17 20  1  0
 18 23  1  0
 19 23  1  0
 20 22  1  0
 23 28  1  0
 26 28  2  0
 27 28  2  0
M  END
>  <washed_aromatic_smiles>  (248) 
CCN(CC)S(=O)(=O)c1ccc(cc1)NC(=O)CCNC(=O)c2ccccc2

>  <name>  (248) 
neg88080

$$$$
neg306743
     RDKit          3D

 25 26  0  0  0  0  0  0  0  0999 V2000
    2.5670    1.2170   51.4300 C   0  0  0  0  0  0  0  0  0  0  0  0
    1.9150    0.6670   50.3330 C   0  0  0  0  0  0  0  0  0  0  0  0
    3.4570    6.7880   54.0720 C   0  0  0  0  0  0  0  0  0  0  0  0
    2.1870    7.9460   52.4490 C   0  0  0  0  0  0  0  0  0  0  0  0
    2.6580    2.5980   51.5690 C   0  0  0  0  0  0  0  0  0  0  0  0
    4.1130    7.9460   54.4120 C   0  0  0  0  0  0  0  0  0  0  0  0
    2.7880    9.1360   52.8430 C   0  0  0  0  0  0  0  0  0  0  0  0
    1.4950    2.8800   49.4880 C   0  0  0  0  0  0  0  0  0  0  0  0
    1.3780    1.4960   49.3520 C   0  0  0  0  0  0  0  0  0  0  0  0
    2.6780    6.7060   52.9100 C   0  0  0  0  0  0  0  0  0  0  0  0
    3.8580    9.1420   53.7490 C   0  0  0  0  0  0  0  0  0  0  0  0
    2.1050    3.4470   50.6080 C   0  0  0  0  0  0  0  0  0  0  0  0
    0.6460    0.8950   48.1690 C   0  0  0  0  0  0  0  0  0  0  0  0
    3.9840    9.3300   57.4960 C   0  0  0  0  0  0  0  0  0  0  0  0
    5.6230   13.0580   56.5870 C   0  0  0  0  0  0  0  0  0  0  0  0
    5.1550    9.9810   56.7580 C   0  0  0  0  0  0  0  0  0  0  0  0
    4.4060   12.2360   56.1640 C   0  0  0  0  0  0  0  0  0  0  0  0
    2.5480    5.5240   52.3050 N   0  0  0  0  0  0  0  0  0  0  0  0
    4.7280   10.8940   55.6900 N   0  0  0  0  0  0  0  0  0  0  0  0
    0.7340    5.6690   50.6150 O   0  0  0  0  0  0  0  0  0  0  0  0
    3.0680    5.7640   49.8780 O   0  0  0  0  0  0  0  0  0  0  0  0
    6.2700   10.1230   53.8350 O   0  0  0  0  0  0  0  0  0  0  0  0
    4.4730   11.6510   53.2750 O   0  0  0  0  0  0  0  0  0  0  0  0
    2.0890    5.2410   50.7890 S   0  0  2  0  0  0  0  0  0  0  0  0
    4.9240   10.5450   54.0610 S   0  0  0  0  0  0  0  0  0  0  0  0
  1  2  2  0
  1  5  1  0
  2  9  1  0
  3  6  2  0
  3 10  1  0
  4  7  1  0
  4 10  2  0
  5 12  2  0
  6 11  1  0
  7 11  2  0
  8  9  2  0
  8 12  1  0
  9 13  1  0
 10 18  1  0
 11 25  1  0
 12 24  1  0
 14 16  1  0
 15 17  1  0
 16 19  1  0
 17 19  1  0
 18 24  2  0
 19 25  1  0
 20 24  2  0
 24 21  1  6
 22 25  2  0
 23 25  2  0
M  CHG  1  21  -1
M  END
>  <washed_aromatic_smiles>  (249) 
CCN(CC)S(=O)(=O)c1ccc(cc1)NS(=O)(=O)c2cccc(c2)C

>  <name>  (249) 
neg306743

$$$$
neg38168
     RDKit          3D

 32 35  0  0  0  0  0  0  0  0999 V2000
    1.2890    3.8870   48.8580 C   0  0  0  0  0  0  0  0  0  0  0  0
    3.6100    1.6280   52.6950 C   0  0  0  0  0  0  0  0  0  0  0  0
    1.8510    2.6560   49.0280 C   0  0  0  0  0  0  0  0  0  0  0  0
    3.0630    2.8640   52.5090 C   0  0  0  0  0  0  0  0  0  0  0  0
    0.2660    9.2400   53.1310 C   0  0  0  0  0  0  0  0  0  0  0  0
   -1.6610    0.1490   47.5510 C   0  0  0  0  0  0  0  0  0  0  0  0
    1.4460    9.5580   52.5250 C   0  0  0  0  0  0  0  0  0  0  0  0
   -0.3970    0.4540   47.1260 C   0  0  0  0  0  0  0  0  0  0  0  0
    1.3200    4.8190   49.9080 C   0  0  0  0  0  0  0  0  0  0  0  0
    3.5700    0.6960   51.6740 C   0  0  0  0  0  0  0  0  0  0  0  0
    0.8940    6.9570   53.2470 C   0  0  0  0  0  0  0  0  0  0  0  0
   -0.8990    0.0560   49.7840 C   0  0  0  0  0  0  0  0  0  0  0  0
    2.3720    2.2790   50.2840 C   0  0  0  0  0  0  0  0  0  0  0  0
    2.5100    3.2620   51.2800 C   0  0  0  0  0  0  0  0  0  0  0  0
    0.2520    8.0510   53.8040 C   0  0  0  0  0  0  0  0  0  0  0  0
   -1.8990   -0.2200   48.8630 C   0  0  0  0  0  0  0  0  0  0  0  0
    2.3850    8.5590   52.3720 C   0  0  0  0  0  0  0  0  0  0  0  0
    0.5960    0.0150   47.9450 C   0  0  0  0  0  0  0  0  0  0  0  0
    2.0840    4.5900   51.0190 C   0  0  0  0  0  0  0  0  0  0  0  0
    2.7450    0.9570   50.6250 C   0  0  0  0  0  0  0  0  0  0  0  0
    2.0080    7.2160   52.4690 C   0  0  0  0  0  0  0  0  0  0  0  0
    0.4030   -0.0020   49.3300 C   0  0  0  0  0  0  0  0  0  0  0  0
    3.4530    6.6210   50.4050 O   0  0  0  0  0  0  0  0  0  0  0  0
    3.9820    5.6010   52.5500 O   0  0  0  0  0  0  0  0  0  0  0  0
    0.9800   -0.3400   51.8450 O   0  0  0  0  0  0  0  0  0  0  0  0
    2.2800   -1.5270   50.2020 O   0  0  0  0  0  0  0  0  0  0  0  0
   -0.1080    8.1190   55.1130 O   0  0  0  0  0  0  0  0  0  0  0  0
   -3.1470   -0.6300   49.2570 O   0  0  0  0  0  0  0  0  0  0  0  0
    3.6290    8.9610   52.0740 O   0  0  0  0  0  0  0  0  0  0  0  0
    1.5740   -0.5570   47.2440 O   0  0  0  0  0  0  0  0  0  0  0  0
    3.0030    6.0150   51.6110 S   0  0  0  0  0  0  0  0  0  0  0  0
    1.6020   -0.3550   50.5650 S   0  0  0  0  0  0  0  0  0  0  0  0
  1  3  2  0
  1  9  1  0
  2  4  2  0
  2 10  1  0
  3 13  1  0
  4 14  1  0
  5  7  2  0
  5 15  1  0
  6  8  2  0
  6 16  1  0
  7 17  1  0
  8 18  1  0
  9 19  2  0
 10 20  2  0
 11 15  2  0
 11 21  1  0
 12 16  2  0
 12 22  1  0
 13 14  2  0
 13 20  1  0
 14 19  1  0
 15 27  1  0
 16 28  1  0
 17 21  2  0
 17 29  1  0
 18 22  2  0
 18 30  1  0
 19 31  1  0
 20 32  1  0
 21 31  1  0
 22 32  1  0
 23 31  2  0
 24 31  2  0
 25 32  2  0
 26 32  2  0
M  END
>  <washed_aromatic_smiles>  (250) 
c1cc2c(cccc2S(=O)(=O)c3cc(ccc3O)O)c(c1)S(=O)(=O)c4cc(ccc4O)O

>  <name>  (250) 
neg38168

$$$$
neg187781
     RDKit          3D

 30 33  0  0  0  0  0  0  0  0999 V2000
    5.0880   12.7550   54.9170 C   0  0  0  0  0  0  0  0  0  0  0  0
    4.8000   11.8870   53.8590 C   0  0  0  0  0  0  0  0  0  0  0  0
    4.6760    9.0450   57.9960 C   0  0  0  0  0  0  0  0  0  0  0  0
    4.2240    8.2230   56.9630 C   0  0  0  0  0  0  0  0  0  0  0  0
    4.8050   10.9220   56.4720 C   0  0  0  0  0  0  0  0  0  0  0  0
    4.4240   10.0750   55.4260 C   0  0  0  0  0  0  0  0  0  0  0  0
    5.1050   12.2800   56.2210 C   0  0  0  0  0  0  0  0  0  0  0  0
    4.4790   10.5570   54.1110 C   0  0  0  0  0  0  0  0  0  0  0  0
    4.9650   10.3810   57.7570 C   0  0  0  0  0  0  0  0  0  0  0  0
    4.0670    8.7300   55.6820 C   0  0  0  0  0  0  0  0  0  0  0  0
    5.4520   13.1310   57.3400 C   0  0  0  0  0  0  0  0  0  0  0  0
    4.2520    9.6140   53.0540 C   0  0  0  0  0  0  0  0  0  0  0  0
    5.5580   11.2150   58.7650 C   0  0  0  0  0  0  0  0  0  0  0  0
    3.5770    7.9110   54.5900 C   0  0  0  0  0  0  0  0  0  0  0  0
    7.8180   13.6090   59.6710 C   0  0  0  0  0  0  0  0  0  0  0  0
    1.6190    6.9000   52.2040 C   0  0  0  0  0  0  0  0  0  0  0  0
    8.3070   14.5890   60.7440 C   0  0  0  0  0  0  0  0  0  0  0  0
    0.5200    7.3840   53.1360 C   0  0  0  0  0  0  0  0  0  0  0  0
    6.2910   13.4590   59.6540 C   0  0  0  0  0  0  0  0  0  0  0  0
    3.0030    7.5730   52.1890 C   0  0  0  0  0  0  0  0  0  0  0  0
    9.8310   14.7210   60.6950 C   0  0  0  0  0  0  0  0  0  0  0  0
    0.3500    8.8720   53.3800 C   0  0  0  0  0  0  0  0  0  0  0  0
    5.7370   12.5820   58.5780 N   0  0  0  0  0  0  0  0  0  0  0  0
    3.5240    8.4320   53.3050 N   0  0  0  0  0  0  0  0  0  0  0  0
    5.5050   14.3350   57.2560 O   0  0  0  0  0  0  0  0  0  0  0  0
    4.7830    9.7940   51.9840 O   0  0  0  0  0  0  0  0  0  0  0  0
    6.0510   10.7160   59.7380 O   0  0  0  0  0  0  0  0  0  0  0  0
    3.2410    6.7530   54.7380 O   0  0  0  0  0  0  0  0  0  0  0  0
   10.2750   15.5240   61.7670 O   0  0  0  0  0  0  0  0  0  0  0  0
   -0.0320    9.5760   52.2290 O   0  0  0  0  0  0  0  0  0  0  0  0
  1  2  2  0
  1  7  1  0
  2  8  1  0
  3  4  1  0
  3  9  2  0
  4 10  2  0
  5  6  1  0
  5  7  2  0
  5  9  1  0
  6  8  2  0
  6 10  1  0
  7 11  1  0
  8 12  1  0
  9 13  1  0
 10 14  1  0
 11 23  1  0
 11 25  2  0
 12 24  1  0
 12 26  2  0
 13 23  1  0
 13 27  2  0
 14 24  1  0
 14 28  2  0
 15 17  1  0
 15 19  1  0
 16 18  1  0
 16 20  1  0
 17 21  1  0
 18 22  1  0
 19 23  1  0
 20 24  1  0
 21 29  1  0
 22 30  1  0
M  END
>  <washed_aromatic_smiles>  (251) 
c1cc2c3c(ccc4c3c1C(=O)N(C4=O)CCCCO)C(=O)N(C2=O)CCCCO

>  <name>  (251) 
neg187781

$$$$
neg69260
     RDKit          3D

 26 28  0  0  0  0  0  0  0  0999 V2000
    2.6980    4.1540   48.2300 C   0  0  0  0  0  0  0  0  0  0  0  0
    3.1020    5.4460   48.5540 C   0  0  0  0  0  0  0  0  0  0  0  0
    2.3730    3.2590   49.2260 C   0  0  0  0  0  0  0  0  0  0  0  0
    3.1420    5.8510   49.8750 C   0  0  0  0  0  0  0  0  0  0  0  0
    4.0150    7.5020   53.9160 C   0  0  0  0  0  0  0  0  0  0  0  0
    2.3220    8.9510   55.5870 C   0  0  0  0  0  0  0  0  0  0  0  0
    2.5080    3.6000   50.5790 C   0  0  0  0  0  0  0  0  0  0  0  0
    2.6400    7.4620   53.6570 C   0  0  0  0  0  0  0  0  0  0  0  0
    2.8160    4.9480   50.8870 C   0  0  0  0  0  0  0  0  0  0  0  0
    4.5290    8.3050   54.9210 C   0  0  0  0  0  0  0  0  0  0  0  0
    3.6870    8.9930   55.7760 C   0  0  0  0  0  0  0  0  0  0  0  0
    1.8080    8.2640   54.4760 C   0  0  0  0  0  0  0  0  0  0  0  0
    2.3980    2.5490   51.5850 C   0  0  0  0  0  0  0  0  0  0  0  0
    2.1330    6.6260   52.5580 C   0  0  0  0  0  0  0  0  0  0  0  0
    2.5790   -1.0680   52.6990 C   0  0  0  0  0  0  0  0  0  0  0  0
    3.4440   -0.3400   51.6620 C   0  0  0  0  0  0  0  0  0  0  0  0
    1.5360   -0.1140   53.2810 C   0  0  0  0  0  0  0  0  0  0  0  0
    2.6000    0.3980   50.6360 C   0  0  0  0  0  0  0  0  0  0  0  0
    0.8130    0.6840   52.1820 C   0  0  0  0  0  0  0  0  0  0  0  0
    1.7400    1.3740   51.2630 N   0  0  0  0  0  0  0  0  0  0  0  0
    2.8260    5.4660   52.2040 N   0  0  0  0  0  0  0  0  0  0  0  0
    2.9430    2.6180   52.6830 O   0  0  0  0  0  0  0  0  0  0  0  0
    1.1260    6.8780   51.9050 O   0  0  0  0  0  0  0  0  0  0  0  0
    5.8540    8.4150   55.0750 F   0  0  0  0  0  0  0  0  0  0  0  0
    4.1970    9.7060   56.8120 F   0  0  0  0  0  0  0  0  0  0  0  0
    0.1360    8.4570   54.1360 Cl  0  0  0  0  0  0  0  0  0  0  0  0
  1  2  2  0
  1  3  1  0
  2  4  1  0
  3  7  2  0
  4  9  2  0
  5  8  2  0
  5 10  1  0
  6 11  1  0
  6 12  2  0
  7  9  1  0
  7 13  1  0
  8 12  1  0
  8 14  1  0
  9 21  1  0
 10 11  2  0
 10 24  1  0
 11 25  1  0
 12 26  1  0
 13 20  1  0
 13 22  2  0
 14 21  1  0
 14 23  2  0
 15 16  1  0
 15 17  1  0
 16 18  1  0
 17 19  1  0
 18 20  1  0
 19 20  1  0
M  END
>  <washed_aromatic_smiles>  (252) 
c1ccc(c(c1)C(=O)N2CCCCC2)NC(=O)c3cc(c(cc3Cl)F)F

>  <name>  (252) 
neg69260

$$$$
neg187574
     RDKit          3D

 25 27  0  0  0  0  0  0  0  0999 V2000
    0.8460    0.2760   47.5550 C   0  0  0  0  0  0  0  0  0  0  0  0
    1.0940   -0.9230   48.2250 C   0  0  0  0  0  0  0  0  0  0  0  0
    1.0100    1.4720   48.2290 C   0  0  0  0  0  0  0  0  0  0  0  0
    3.4900   -0.8960   54.6780 C   0  0  0  0  0  0  0  0  0  0  0  0
    2.6650    1.2860   54.2570 C   0  0  0  0  0  0  0  0  0  0  0  0
    1.5050   -0.9490   49.5530 C   0  0  0  0  0  0  0  0  0  0  0  0
    3.9960   -0.5030   55.9060 C   0  0  0  0  0  0  0  0  0  0  0  0
    3.0710    1.6830   55.5280 C   0  0  0  0  0  0  0  0  0  0  0  0
    2.8650   -0.0180   53.8130 C   0  0  0  0  0  0  0  0  0  0  0  0
    1.4570    1.4400   49.5480 C   0  0  0  0  0  0  0  0  0  0  0  0
    1.8060    0.2450   50.1760 C   0  0  0  0  0  0  0  0  0  0  0  0
    3.8030    0.8080   56.3290 C   0  0  0  0  0  0  0  0  0  0  0  0
    1.2950    2.5200   50.4470 C   0  0  0  0  0  0  0  0  0  0  0  0
    2.5070   -0.5220   52.4930 C   0  0  0  0  0  0  0  0  0  0  0  0
    3.5050    6.3560   49.4090 C   0  0  0  0  0  0  0  0  0  0  0  0
    2.8070    6.7020   50.7400 C   0  0  0  0  0  0  0  0  0  0  0  0
    2.9100    5.1910   48.6230 C   0  0  0  0  0  0  0  0  0  0  0  0
    3.0400    5.6980   51.8240 C   0  0  0  0  0  0  0  0  0  0  0  0
    2.9930    3.9070   49.3990 C   0  0  0  0  0  0  0  0  0  0  0  0
    2.1510    4.4650   51.6750 C   0  0  0  0  0  0  0  0  0  0  0  0
    1.9960    3.7120   50.4120 N   0  0  0  0  0  0  0  0  0  0  0  0
    2.4720    0.3560   51.4400 N   0  0  0  0  0  0  0  0  0  0  0  0
    0.5190    2.2620   51.3420 O   0  0  0  0  0  0  0  0  0  0  0  0
    2.3040   -1.7030   52.2820 O   0  0  0  0  0  0  0  0  0  0  0  0
    4.4890    1.3340   57.8360 Cl  0  0  0  0  0  0  0  0  0  0  0  0
  1  2  2  0
  1  3  1  0
  2  6  1  0
  3 10  2  0
  4  7  2  0
  4  9  1  0
  5  8  1  0
  5  9  2  0
  6 11  2  0
  7 12  1  0
  8 12  2  0
  9 14  1  0
 10 11  1  0
 10 13  1  0
 11 22  1  0
 12 25  1  0
 13 21  1  0
 13 23  2  0
 14 22  1  0
 14 24  2  0
 15 16  1  0
 15 17  1  0
 16 18  1  0
 17 19  1  0
 18 20  1  0
 19 21  1  0
 20 21  1  0
M  END
>  <washed_aromatic_smiles>  (253) 
c1ccc(c(c1)C(=O)N2CCCCCC2)NC(=O)c3ccc(cc3)Cl

>  <name>  (253) 
neg187574

$$$$
neg44583
     RDKit          3D

 27 29  0  0  0  0  0  0  0  0999 V2000
    0.7570    0.1210   47.9120 C   0  0  0  0  0  0  0  0  0  0  0  0
    1.1600   -1.0700   48.5000 C   0  0  0  0  0  0  0  0  0  0  0  0
    3.2800    1.8240   55.9600 C   0  0  0  0  0  0  0  0  0  0  0  0
    0.8170    1.2720   48.6550 C   0  0  0  0  0  0  0  0  0  0  0  0
    2.7490    1.5030   54.7140 C   0  0  0  0  0  0  0  0  0  0  0  0
    1.6770   -1.1170   49.8060 C   0  0  0  0  0  0  0  0  0  0  0  0
    4.0260    0.8870   56.6550 C   0  0  0  0  0  0  0  0  0  0  0  0
    3.5390   -0.7310   54.8850 C   0  0  0  0  0  0  0  0  0  0  0  0
    2.8020    0.2180   54.1930 C   0  0  0  0  0  0  0  0  0  0  0  0
    1.2970    1.2090   49.9610 C   0  0  0  0  0  0  0  0  0  0  0  0
    1.8420    0.0560   50.5040 C   0  0  0  0  0  0  0  0  0  0  0  0
    4.1720   -0.3730   56.0830 C   0  0  0  0  0  0  0  0  0  0  0  0
    0.9640    2.2440   50.8420 C   0  0  0  0  0  0  0  0  0  0  0  0
    2.0490   -0.1150   52.9890 C   0  0  0  0  0  0  0  0  0  0  0  0
    3.4830    6.0690   49.9070 C   0  0  0  0  0  0  0  0  0  0  0  0
    2.7360    6.5330   51.1790 C   0  0  0  0  0  0  0  0  0  0  0  0
    2.8560    4.9730   49.0360 C   0  0  0  0  0  0  0  0  0  0  0  0
    2.0970    5.4740   52.0320 C   0  0  0  0  0  0  0  0  0  0  0  0
    2.7030    3.6440   49.7740 C   0  0  0  0  0  0  0  0  0  0  0  0
    1.0290    4.7380   51.2370 C   0  0  0  0  0  0  0  0  0  0  0  0
    1.5280    3.5010   50.6350 N   0  0  0  0  0  0  0  0  0  0  0  0
    2.5910    0.1020   51.7290 N   0  0  0  0  0  0  0  0  0  0  0  0
    5.0470   -1.2850   56.7590 N   0  0  0  0  0  0  0  0  0  0  0  0
    6.1060   -1.5900   56.2450 O   0  0  0  0  0  0  0  0  0  0  0  0
    0.0580    1.9710   51.6240 O   0  0  0  0  0  0  0  0  0  0  0  0
    0.9190   -0.5540   53.0690 O   0  0  0  0  0  0  0  0  0  0  0  0
    4.7570   -1.7240   57.8580 O   0  0  0  0  0  0  0  0  0  0  0  0
  1  2  2  0
  1  4  1  0
  2  6  1  0
  3  5  2  0
  3  7  1  0
  4 10  2  0
  5  9  1  0
  6 11  2  0
  7 12  2  0
  8  9  2  0
  8 12  1  0
  9 14  1  0
 10 11  1  0
 10 13  1  0
 11 22  1  0
 12 23  1  0
 13 21  1  0
 13 25  2  0
 14 22  1  0
 14 26  2  0
 15 16  1  0
 15 17  1  0
 16 18  1  0
 17 19  1  0
 18 20  1  0
 19 21  1  0
 20 21  1  0
 23 24  1  0
 23 27  2  0
M  CHG  2  23   1  24  -1
M  END
>  <washed_aromatic_smiles>  (254) 
c1ccc(c(c1)C(=O)N2CCCCCC2)NC(=O)c3cccc(c3)[N+](=O)[O-]

>  <name>  (254) 
neg44583

$$$$
neg174526
     RDKit          3D

 25 27  0  0  0  0  0  0  0  0999 V2000
    3.3670    5.8960   48.5470 C   0  0  0  0  0  0  0  0  0  0  0  0
    3.0330    0.7930   54.9140 C   0  0  0  0  0  0  0  0  0  0  0  0
    3.1880    4.5460   48.2690 C   0  0  0  0  0  0  0  0  0  0  0  0
    3.1010   -0.5720   54.7240 C   0  0  0  0  0  0  0  0  0  0  0  0
    3.3180    6.3720   49.8490 C   0  0  0  0  0  0  0  0  0  0  0  0
    2.7100    1.5990   53.8450 C   0  0  0  0  0  0  0  0  0  0  0  0
    2.8400    3.6870   49.2730 C   0  0  0  0  0  0  0  0  0  0  0  0
    2.8460   -1.1120   53.4700 C   0  0  0  0  0  0  0  0  0  0  0  0
    3.0740    5.5130   50.9200 C   0  0  0  0  0  0  0  0  0  0  0  0
    2.3900    1.0780   52.5830 C   0  0  0  0  0  0  0  0  0  0  0  0
    2.7790    4.1610   50.5780 C   0  0  0  0  0  0  0  0  0  0  0  0
    2.4800   -0.3030   52.4010 C   0  0  0  0  0  0  0  0  0  0  0  0
    3.3110    5.8980   52.3300 C   0  0  0  0  0  0  0  0  0  0  0  0
    2.0130    1.9640   51.4990 C   0  0  0  0  0  0  0  0  0  0  0  0
    0.7980    8.5470   54.3730 C   0  0  0  0  0  0  0  0  0  0  0  0
    1.8860    8.9370   55.4380 C   0  0  0  0  0  0  0  0  0  0  0  0
    1.1860    8.6990   52.8880 C   0  0  0  0  0  0  0  0  0  0  0  0
    3.2360    8.2490   55.3460 C   0  0  0  0  0  0  0  0  0  0  0  0
    2.6520    8.3730   52.5370 C   0  0  0  0  0  0  0  0  0  0  0  0
    3.1040    7.0030   54.5050 C   0  0  0  0  0  0  0  0  0  0  0  0
    3.1200    7.0950   53.0340 N   0  0  0  0  0  0  0  0  0  0  0  0
    2.5890    3.2080   51.5700 N   0  0  0  0  0  0  0  0  0  0  0  0
    3.8100    5.0590   53.0410 O   0  0  0  0  0  0  0  0  0  0  0  0
    1.2000    1.7110   50.6150 O   0  0  0  0  0  0  0  0  0  0  0  0
    2.2110   -1.0290   50.8480 Cl  0  0  0  0  0  0  0  0  0  0  0  0
  1  3  2  0
  1  5  1  0
  2  4  2  0
  2  6  1  0
  3  7  1  0
  4  8  1  0
  5  9  2  0
  6 10  2  0
  7 11  2  0
  8 12  2  0
  9 11  1  0
  9 13  1  0
 10 12  1  0
 10 14  1  0
 11 22  1  0
 12 25  1  0
 13 21  1  0
 13 23  2  0
 14 22  1  0
 14 24  2  0
 15 16  1  0
 15 17  1  0
 16 18  1  0
 17 19  1  0
 18 20  1  0
 19 21  1  0
 20 21  1  0
M  END
>  <washed_aromatic_smiles>  (255) 
c1ccc(c(c1)C(=O)N2CCCCCC2)NC(=O)c3ccccc3Cl

>  <name>  (255) 
neg174526

$$$$
neg179900
     RDKit          3D

 26 28  0  0  0  0  0  0  0  0999 V2000
    0.8380    0.1270   47.5550 C   0  0  0  0  0  0  0  0  0  0  0  0
    1.1250   -1.0400   48.2550 C   0  0  0  0  0  0  0  0  0  0  0  0
    0.9590    1.3350   48.1950 C   0  0  0  0  0  0  0  0  0  0  0  0
    3.3100   -0.8490   54.5430 C   0  0  0  0  0  0  0  0  0  0  0  0
    2.7320    1.4700   54.4960 C   0  0  0  0  0  0  0  0  0  0  0  0
    1.5280   -1.0210   49.5900 C   0  0  0  0  0  0  0  0  0  0  0  0
    4.0000   -0.6510   55.7440 C   0  0  0  0  0  0  0  0  0  0  0  0
    3.2890    1.6640   55.7530 C   0  0  0  0  0  0  0  0  0  0  0  0
    2.6730    0.2130   53.9010 C   0  0  0  0  0  0  0  0  0  0  0  0
    1.4540    1.3650   49.4970 C   0  0  0  0  0  0  0  0  0  0  0  0
    1.8060    0.1910   50.1770 C   0  0  0  0  0  0  0  0  0  0  0  0
    3.9790    0.6100   56.3320 C   0  0  0  0  0  0  0  0  0  0  0  0
    1.3780    2.5330   50.2810 C   0  0  0  0  0  0  0  0  0  0  0  0
    1.9100    0.0320   52.6680 C   0  0  0  0  0  0  0  0  0  0  0  0
    2.6190    3.8930   48.7050 C   0  0  0  0  0  0  0  0  0  0  0  0
    2.2300    4.6560   51.0990 C   0  0  0  0  0  0  0  0  0  0  0  0
    3.3530    5.2030   48.5350 C   0  0  0  0  0  0  0  0  0  0  0  0
    3.0580    5.8910   50.7380 C   0  0  0  0  0  0  0  0  0  0  0  0
    1.9410    3.7400   49.9810 N   0  0  0  0  0  0  0  0  0  0  0  0
    2.5150    0.2080   51.4290 N   0  0  0  0  0  0  0  0  0  0  0  0
    4.7210    0.8400   57.5520 N   0  0  0  0  0  0  0  0  0  0  0  0
    5.1890    1.9400   57.7880 O   0  0  0  0  0  0  0  0  0  0  0  0
    0.7300    2.4030   51.2720 O   0  0  0  0  0  0  0  0  0  0  0  0
    0.7180   -0.2180   52.6950 O   0  0  0  0  0  0  0  0  0  0  0  0
    4.8940   -0.0680   58.3480 O   0  0  0  0  0  0  0  0  0  0  0  0
    4.0090    5.6180   49.7170 O   0  0  0  0  0  0  0  0  0  0  0  0
  1  2  2  0
  1  3  1  0
  2  6  1  0
  3 10  2  0
  4  7  2  0
  4  9  1  0
  5  8  1  0
  5  9  2  0
  6 11  2  0
  7 12  1  0
  8 12  2  0
  9 14  1  0
 10 11  1  0
 10 13  1  0
 11 20  1  0
 12 21  1  0
 13 19  1  0
 13 23  2  0
 14 20  1  0
 14 24  2  0
 15 17  1  0
 15 19  1  0
 16 18  1  0
 16 19  1  0
 17 26  1  0
 18 26  1  0
 21 22  1  0
 21 25  2  0
M  CHG  2  21   1  22  -1
M  END
>  <washed_aromatic_smiles>  (256) 
c1ccc(c(c1)C(=O)N2CCOCC2)NC(=O)c3ccc(cc3)[N+](=O)[O-]

>  <name>  (256) 
neg179900

$$$$
neg44618
     RDKit          3D

 25 27  0  0  0  0  0  0  0  0999 V2000
    2.5880    3.5440   48.2960 C   0  0  0  0  0  0  0  0  0  0  0  0
    3.1530    4.7930   48.5460 C   0  0  0  0  0  0  0  0  0  0  0  0
    2.3020    2.7210   49.3630 C   0  0  0  0  0  0  0  0  0  0  0  0
    3.2700    5.2630   49.8180 C   0  0  0  0  0  0  0  0  0  0  0  0
    3.9390    7.4820   54.0780 C   0  0  0  0  0  0  0  0  0  0  0  0
    1.7210    8.1510   54.6570 C   0  0  0  0  0  0  0  0  0  0  0  0
    4.4550    8.1850   55.1590 C   0  0  0  0  0  0  0  0  0  0  0  0
    2.2310    8.8380   55.7630 C   0  0  0  0  0  0  0  0  0  0  0  0
    2.4600    3.1500   50.6990 C   0  0  0  0  0  0  0  0  0  0  0  0
    2.7240    4.5600   50.9400 C   0  0  0  0  0  0  0  0  0  0  0  0
    2.5800    7.4540   53.8060 C   0  0  0  0  0  0  0  0  0  0  0  0
    3.5990    8.8710   56.0070 C   0  0  0  0  0  0  0  0  0  0  0  0
    2.5300    2.1850   51.7710 C   0  0  0  0  0  0  0  0  0  0  0  0
    1.0390    0.2840   51.0820 C   0  0  0  0  0  0  0  0  0  0  0  0
    1.6990    0.4730   53.3360 C   0  0  0  0  0  0  0  0  0  0  0  0
    2.0870   -0.8230   50.8690 C   0  0  0  0  0  0  0  0  0  0  0  0
    2.7100   -0.6660   53.1620 C   0  0  0  0  0  0  0  0  0  0  0  0
    1.5350    1.2260   52.0740 N   0  0  0  0  0  0  0  0  0  0  0  0
    2.4540    5.1900   52.1030 N   0  0  0  0  0  0  0  0  0  0  0  0
    3.5140    2.1610   52.5090 O   0  0  0  0  0  0  0  0  0  0  0  0
    2.8230    7.5570   51.3080 O   0  0  0  0  0  0  0  0  0  0  0  0
    0.6300    6.9240   52.1500 O   0  0  0  0  0  0  0  0  0  0  0  0
    2.3460   -1.5240   52.0870 O   0  0  0  0  0  0  0  0  0  0  0  0
    2.0580    6.7930   52.2250 S   0  0  2  0  0  0  0  0  0  0  0  0
    4.3050    9.8470   57.4660 Br  0  0  0  0  0  0  0  0  0  0  0  0
  1  2  2  0
  1  3  1  0
  2  4  1  0
  3  9  2  0
  4 10  2  0
  5  7  2  0
  5 11  1  0
  6  8  1  0
  6 11  2  0
  7 12  1  0
  8 12  2  0
  9 10  1  0
  9 13  1  0
 10 19  1  0
 11 24  1  0
 12 25  1  0
 13 18  1  0
 13 20  2  0
 14 16  1  0
 14 18  1  0
 15 17  1  0
 15 18  1  0
 16 23  1  0
 17 23  1  0
 19 24  2  0
 21 24  2  0
 24 22  1  6
M  CHG  1  22  -1
M  END
>  <washed_aromatic_smiles>  (257) 
c1ccc(c(c1)C(=O)N2CCOCC2)NS(=O)(=O)c3ccc(cc3)Br

>  <name>  (257) 
neg44618

$$$$
neg105888
     RDKit          3D

 29 31  0  0  0  0  0  0  0  0999 V2000
    3.3390    5.2050   49.4280 C   0  0  0  0  0  0  0  0  0  0  0  0
    5.3760   13.3390   56.0860 C   0  0  0  0  0  0  0  0  0  0  0  0
    2.5710    4.0860   49.7270 C   0  0  0  0  0  0  0  0  0  0  0  0
    5.6350   13.6860   57.4150 C   0  0  0  0  0  0  0  0  0  0  0  0
    3.1840    6.3770   50.1610 C   0  0  0  0  0  0  0  0  0  0  0  0
    5.2050   12.0100   55.7280 C   0  0  0  0  0  0  0  0  0  0  0  0
    1.6050    4.1710   50.7180 C   0  0  0  0  0  0  0  0  0  0  0  0
    5.6750   12.7090   58.4010 C   0  0  0  0  0  0  0  0  0  0  0  0
    0.2440    8.4910   55.0780 C   0  0  0  0  0  0  0  0  0  0  0  0
    1.5570    9.0110   57.0050 C   0  0  0  0  0  0  0  0  0  0  0  0
    2.6630    8.6000   54.8940 C   0  0  0  0  0  0  0  0  0  0  0  0
    2.2740    6.4710   51.2210 C   0  0  0  0  0  0  0  0  0  0  0  0
    5.2410   11.0150   56.7050 C   0  0  0  0  0  0  0  0  0  0  0  0
    0.2990    8.7110   56.4720 C   0  0  0  0  0  0  0  0  0  0  0  0
    1.4130    8.3680   54.3240 C   0  0  0  0  0  0  0  0  0  0  0  0
    2.7100    8.9260   56.2410 C   0  0  0  0  0  0  0  0  0  0  0  0
    1.4200    5.3750   51.3890 C   0  0  0  0  0  0  0  0  0  0  0  0
    5.4510   11.3930   58.0340 C   0  0  0  0  0  0  0  0  0  0  0  0
    2.2860    7.6550   52.0970 C   0  0  0  0  0  0  0  0  0  0  0  0
    4.9970    9.6420   56.3360 C   0  0  0  0  0  0  0  0  0  0  0  0
   -0.7380    8.2880   57.4300 C   0  0  0  0  0  0  0  0  0  0  0  0
    1.2670    7.8600   53.0080 N   0  0  0  0  0  0  0  0  0  0  0  0
    3.9100    9.0960   56.9430 N   0  0  0  0  0  0  0  0  0  0  0  0
    3.1710    8.5020   52.0560 O   0  0  0  0  0  0  0  0  0  0  0  0
    5.6290    9.0070   55.5010 O   0  0  0  0  0  0  0  0  0  0  0  0
   -0.8120    8.8210   58.5590 O   0  0  0  0  0  0  0  0  0  0  0  0
   -1.3990    7.2450   57.2130 O   0  0  0  0  0  0  0  0  0  0  0  0
    0.3350    5.4820   52.1870 F   0  0  0  0  0  0  0  0  0  0  0  0
    5.4730   10.4450   59.0130 F   0  0  0  0  0  0  0  0  0  0  0  0
  1  3  2  0
  1  5  1  0
  2  4  2  0
  2  6  1  0
  3  7  1  0
  4  8  1  0
  5 12  2  0
  6 13  2  0
  7 17  2  0
  8 18  2  0
  9 14  2  0
  9 15  1  0
 10 14  1  0
 10 16  2  0
 11 15  2  0
 11 16  1  0
 12 17  1  0
 12 19  1  0
 13 18  1  0
 13 20  1  0
 14 21  1  0
 15 22  1  0
 16 23  1  0
 17 28  1  0
 18 29  1  0
 19 22  1  0
 19 24  2  0
 20 23  1  0
 20 25  2  0
 21 26  1  0
 21 27  2  0
M  CHG  1  26  -1
M  END
>  <washed_aromatic_smiles>  (258) 
c1ccc(c(c1)C(=O)Nc2cc(cc(c2)NC(=O)c3ccccc3F)C(=O)O)F

>  <name>  (258) 
neg105888

$$$$
neg173162
     RDKit          3D

 25 27  0  0  0  0  0  0  0  0999 V2000
    3.2560    0.7130   55.5560 C   0  0  0  0  0  0  0  0  0  0  0  0
    3.2650   -0.5330   54.9370 C   0  0  0  0  0  0  0  0  0  0  0  0
    2.8760    1.7940   54.8160 C   0  0  0  0  0  0  0  0  0  0  0  0
    2.7200   -0.7140   53.6860 C   0  0  0  0  0  0  0  0  0  0  0  0
    3.1790    3.9250   49.1540 C   0  0  0  0  0  0  0  0  0  0  0  0
    2.3420    5.2950   50.9780 C   0  0  0  0  0  0  0  0  0  0  0  0
    3.5240    5.0560   48.4720 C   0  0  0  0  0  0  0  0  0  0  0  0
    2.8360    6.4190   50.3570 C   0  0  0  0  0  0  0  0  0  0  0  0
    2.6170    1.6800   53.4380 C   0  0  0  0  0  0  0  0  0  0  0  0
    2.6330    4.0340   50.4320 C   0  0  0  0  0  0  0  0  0  0  0  0
    2.1870    0.4070   52.9880 C   0  0  0  0  0  0  0  0  0  0  0  0
    3.3810    6.2780   49.0920 C   0  0  0  0  0  0  0  0  0  0  0  0
    2.8430    2.8080   52.5480 C   0  0  0  0  0  0  0  0  0  0  0  0
    0.1720    0.4160   47.1770 C   0  0  0  0  0  0  0  0  0  0  0  0
    0.5490    1.7960   47.6030 C   0  0  0  0  0  0  0  0  0  0  0  0
    0.6310   -0.5450   48.2870 C   0  0  0  0  0  0  0  0  0  0  0  0
    1.0900    1.5960   49.0000 C   0  0  0  0  0  0  0  0  0  0  0  0
    0.9590    0.2450   49.4490 N   0  0  0  0  0  0  0  0  0  0  0  0
    2.5080    2.8560   51.2140 N   0  0  0  0  0  0  0  0  0  0  0  0
    1.3440    0.2980   51.9930 N   0  0  0  0  0  0  0  0  0  0  0  0
    3.2390    3.8840   52.9430 O   0  0  0  0  0  0  0  0  0  0  0  0
    1.9510   -1.7070   50.6990 O   0  0  0  0  0  0  0  0  0  0  0  0
    3.2930    0.2810   50.4960 O   0  0  0  0  0  0  0  0  0  0  0  0
    3.6580    7.3570   48.4050 F   0  0  0  0  0  0  0  0  0  0  0  0
    1.9870   -0.2960   50.6550 S   0  0  1  0  0  0  0  0  0  0  0  0
  1  2  2  0
  1  3  1  0
  2  4  1  0
  3  9  2  0
  4 11  2  0
  5  7  2  0
  5 10  1  0
  6  8  1  0
  6 10  2  0
  7 12  1  0
  8 12  2  0
  9 11  1  0
  9 13  1  0
 10 19  1  0
 11 20  1  0
 12 24  1  0
 13 19  1  0
 13 21  2  0
 14 15  1  0
 14 16  1  0
 15 17  1  0
 16 18  1  0
 17 18  1  0
 18 25  1  0
 20 25  2  0
 22 25  2  0
 25 23  1  6
M  CHG  1  23  -1
M  END
>  <washed_aromatic_smiles>  (259) 
c1ccc(c(c1)C(=O)Nc2ccc(cc2)F)NS(=O)(=O)N3CCCC3

>  <name>  (259) 
neg173162

$$$$
neg327858
     RDKit          3D

 27 29  0  0  0  0  0  0  0  0999 V2000
   -0.0120    0.3840   47.8400 C   0  0  0  0  0  0  0  0  0  0  0  0
    0.1230   -0.7800   48.5820 C   0  0  0  0  0  0  0  0  0  0  0  0
    0.6920    1.4990   48.2240 C   0  0  0  0  0  0  0  0  0  0  0  0
    1.0640   -0.8930   49.5950 C   0  0  0  0  0  0  0  0  0  0  0  0
    2.6310    1.3190   54.0880 C   0  0  0  0  0  0  0  0  0  0  0  0
    3.2700   -0.9550   54.4330 C   0  0  0  0  0  0  0  0  0  0  0  0
    3.0850    1.6430   55.3630 C   0  0  0  0  0  0  0  0  0  0  0  0
    3.8430   -0.6010   55.6570 C   0  0  0  0  0  0  0  0  0  0  0  0
    1.4620    1.4220   49.3810 C   0  0  0  0  0  0  0  0  0  0  0  0
    1.7720    0.2120   50.0080 C   0  0  0  0  0  0  0  0  0  0  0  0
    2.6890    0.0110   53.6350 C   0  0  0  0  0  0  0  0  0  0  0  0
    3.7760    0.7100   56.1290 C   0  0  0  0  0  0  0  0  0  0  0  0
    1.4830    2.5280   50.2570 C   0  0  0  0  0  0  0  0  0  0  0  0
    2.6750    0.1550   51.1650 C   0  0  0  0  0  0  0  0  0  0  0  0
    3.5910    6.1430   49.6170 C   0  0  0  0  0  0  0  0  0  0  0  0
    3.0770    5.3220   48.4450 C   0  0  0  0  0  0  0  0  0  0  0  0
    2.6960    6.0240   50.8460 C   0  0  0  0  0  0  0  0  0  0  0  0
    2.7990    3.8840   48.7590 C   0  0  0  0  0  0  0  0  0  0  0  0
    2.3450    4.5870   51.1860 C   0  0  0  0  0  0  0  0  0  0  0  0
    2.1140    3.7020   50.0290 N   0  0  0  0  0  0  0  0  0  0  0  0
    6.0540    0.2750   57.5520 N   0  0  0  0  0  0  0  0  0  0  0  0
    2.1680   -0.3370   52.3590 N   0  0  0  0  0  0  0  0  0  0  0  0
    0.8400    2.3610   51.2570 O   0  0  0  0  0  0  0  0  0  0  0  0
    3.8240    0.5830   51.1430 O   0  0  0  0  0  0  0  0  0  0  0  0
    5.0750    2.5810   57.4410 O   0  0  0  0  0  0  0  0  0  0  0  0
    3.9400    0.8960   58.7570 O   0  0  0  0  0  0  0  0  0  0  0  0
    4.6990    1.2180   57.5970 S   0  0  0  0  0  0  0  0  0  0  0  0
  1  2  2  0
  1  3  1  0
  2  4  1  0
  3  9  2  0
  4 10  2  0
  5  7  2  0
  5 11  1  0
  6  8  1  0
  6 11  2  0
  7 12  1  0
  8 12  2  0
  9 10  1  0
  9 13  1  0
 10 14  1  0
 11 22  1  0
 12 27  1  0
 13 20  1  0
 13 23  2  0
 14 22  1  0
 14 24  2  0
 15 16  1  0
 15 17  1  0
 16 18  1  0
 17 19  1  0
 18 20  1  0
 19 20  1  0
 21 27  1  0
 25 27  2  0
 26 27  2  0
M  END
>  <washed_aromatic_smiles>  (260) 
c1ccc(c(c1)C(=O)Nc2ccc(cc2)S(=O)(=O)N)C(=O)N3CCCCC3

>  <name>  (260) 
neg327858

$$$$
neg234109
     RDKit          3D

 26 28  0  0  0  0  0  0  0  0999 V2000
    4.9010    7.8000   57.9350 C   0  0  0  0  0  0  0  0  0  0  0  0
    5.2790    8.9100   58.6850 C   0  0  0  0  0  0  0  0  0  0  0  0
    2.3490    1.9160   51.2020 C   0  0  0  0  0  0  0  0  0  0  0  0
    4.3640    7.9720   56.6660 C   0  0  0  0  0  0  0  0  0  0  0  0
    5.1350   10.1870   58.1600 C   0  0  0  0  0  0  0  0  0  0  0  0
    2.8390    2.7910   52.1640 C   0  0  0  0  0  0  0  0  0  0  0  0
    1.9680    2.3950   49.9560 C   0  0  0  0  0  0  0  0  0  0  0  0
    4.2010    9.2490   56.1150 C   0  0  0  0  0  0  0  0  0  0  0  0
    2.6020    4.6430   50.6230 C   0  0  0  0  0  0  0  0  0  0  0  0
    4.6220   10.3630   56.8710 C   0  0  0  0  0  0  0  0  0  0  0  0
    2.9380    4.1610   51.8800 C   0  0  0  0  0  0  0  0  0  0  0  0
    2.0920    3.7560   49.6680 C   0  0  0  0  0  0  0  0  0  0  0  0
   -0.0840    7.0410   52.4470 C   0  0  0  0  0  0  0  0  0  0  0  0
    0.4750    7.8580   53.4750 C   0  0  0  0  0  0  0  0  0  0  0  0
    0.6820    6.5480   51.4490 C   0  0  0  0  0  0  0  0  0  0  0  0
    1.7850    8.2200   53.3940 C   0  0  0  0  0  0  0  0  0  0  0  0
    2.5020    7.9520   52.1710 C   0  0  0  0  0  0  0  0  0  0  0  0
    3.6240    9.3780   54.7840 C   0  0  0  0  0  0  0  0  0  0  0  0
    2.8320    6.1210   50.4090 C   0  0  0  0  0  0  0  0  0  0  0  0
    2.0020    6.9170   51.3510 N   0  0  0  0  0  0  0  0  0  0  0  0
    2.3900    8.7630   54.5810 N   0  0  0  0  0  0  0  0  0  0  0  0
    3.4400    8.6160   51.7600 O   0  0  0  0  0  0  0  0  0  0  0  0
    4.1640   10.0120   53.8880 O   0  0  0  0  0  0  0  0  0  0  0  0
    4.5340   11.9850   56.2480 Cl  0  0  0  0  0  0  0  0  0  0  0  0
    3.7080    5.2920   52.9970 Cl  0  0  0  0  0  0  0  0  0  0  0  0
    1.5970    4.2970   48.1080 Cl  0  0  0  0  0  0  0  0  0  0  0  0
  1  2  2  0
  1  4  1  0
  2  5  1  0
  3  6  2  0
  3  7  1  0
  4  8  2  0
  5 10  2  0
  6 11  1  0
  7 12  2  0
  8 10  1  0
  8 18  1  0
  9 11  2  0
  9 12  1  0
  9 19  1  0
 10 24  1  0
 11 25  1  0
 12 26  1  0
 13 14  1  0
 13 15  2  0
 14 16  2  0
 15 20  1  0
 16 17  1  0
 16 21  1  0
 17 20  1  0
 17 22  2  0
 18 21  1  0
 18 23  2  0
 19 20  1  0
M  END
>  <washed_aromatic_smiles>  (261) 
c1ccc(c(c1)C(=O)Nc2cccn(c2=O)Cc3c(cccc3Cl)Cl)Cl

>  <name>  (261) 
neg234109

$$$$
neg69557
     RDKit          3D

 25 27  0  0  0  0  0  0  0  0999 V2000
    0.4750    2.1010   47.4410 C   0  0  0  0  0  0  0  0  0  0  0  0
    0.2310    0.7440   47.5520 C   0  0  0  0  0  0  0  0  0  0  0  0
    1.1330    2.7710   48.4550 C   0  0  0  0  0  0  0  0  0  0  0  0
    0.6370    0.0390   48.6740 C   0  0  0  0  0  0  0  0  0  0  0  0
    1.5200    2.0970   49.6260 C   0  0  0  0  0  0  0  0  0  0  0  0
    1.2870    0.7060   49.7140 C   0  0  0  0  0  0  0  0  0  0  0  0
    2.1750    5.1560   51.6760 C   0  0  0  0  0  0  0  0  0  0  0  0
    2.7910    7.2250   52.5590 C   0  0  0  0  0  0  0  0  0  0  0  0
    2.1040    2.8610   50.7150 C   0  0  0  0  0  0  0  0  0  0  0  0
    5.0480    9.8000   57.0850 C   0  0  0  0  0  0  0  0  0  0  0  0
    3.5950   10.2780   57.1290 C   0  0  0  0  0  0  0  0  0  0  0  0
    5.5190    9.2940   55.7180 C   0  0  0  0  0  0  0  0  0  0  0  0
    2.6290    9.1040   56.8880 C   0  0  0  0  0  0  0  0  0  0  0  0
    4.6040    8.3480   54.9700 C   0  0  0  0  0  0  0  0  0  0  0  0
    2.3120    8.7810   55.4230 C   0  0  0  0  0  0  0  0  0  0  0  0
    3.2210    5.0570   52.4270 N   0  0  0  0  0  0  0  0  0  0  0  0
    3.5730    6.2640   52.9450 N   0  0  0  0  0  0  0  0  0  0  0  0
    3.3890    9.0100   54.5260 N   0  0  0  0  0  0  0  0  0  0  0  0
    1.6300    4.1530   50.8650 N   0  0  0  0  0  0  0  0  0  0  0  0
    2.9570    2.4300   51.4810 O   0  0  0  0  0  0  0  0  0  0  0  0
    4.1700    9.4520   52.2280 O   0  0  0  0  0  0  0  0  0  0  0  0
    1.8050    9.6330   52.6760 O   0  0  0  0  0  0  0  0  0  0  0  0
    1.4540    6.6850   51.6460 S   0  0  0  0  0  0  0  0  0  0  0  0
    3.0360    8.9690   52.9240 S   0  0  0  0  0  0  0  0  0  0  0  0
    1.7730   -0.2400   51.0920 Cl  0  0  0  0  0  0  0  0  0  0  0  0
  1  2  2  0
  1  3  1  0
  2  4  1  0
  3  5  2  0
  4  6  2  0
  5  6  1  0
  5  9  1  0
  6 25  1  0
  7 16  2  0
  7 19  1  0
  7 23  1  0
  8 17  2  0
  8 23  1  0
  8 24  1  0
  9 19  1  0
  9 20  2  0
 10 11  1  0
 10 12  1  0
 11 13  1  0
 12 14  1  0
 13 15  1  0
 14 18  1  0
 15 18  1  0
 16 17  1  0
 18 24  1  0
 21 24  2  0
 22 24  2  0
M  END
>  <washed_aromatic_smiles>  (262) 
c1ccc(c(c1)C(=O)Nc2nnc(s2)S(=O)(=O)N3CCCCCC3)Cl

>  <name>  (262) 
neg69557

$$$$
neg256222
     RDKit          3D

 32 34  0  0  0  0  0  0  0  0999 V2000
    2.9160   -0.2960   54.6720 C   0  0  0  0  0  0  0  0  0  0  0  0
    3.6070    9.7910   57.2700 C   0  0  0  0  0  0  0  0  0  0  0  0
    2.9420    1.0600   54.9100 C   0  0  0  0  0  0  0  0  0  0  0  0
    2.4150    9.1860   56.9120 C   0  0  0  0  0  0  0  0  0  0  0  0
    2.7710   -0.7380   53.3710 C   0  0  0  0  0  0  0  0  0  0  0  0
    4.5010   10.1790   56.2880 C   0  0  0  0  0  0  0  0  0  0  0  0
    2.8070    1.9370   53.8450 C   0  0  0  0  0  0  0  0  0  0  0  0
    2.1440    8.9220   55.5810 C   0  0  0  0  0  0  0  0  0  0  0  0
    2.6340    0.1610   52.3060 C   0  0  0  0  0  0  0  0  0  0  0  0
    4.2180    9.9770   54.9300 C   0  0  0  0  0  0  0  0  0  0  0  0
    2.6340    1.5470   52.5320 C   0  0  0  0  0  0  0  0  0  0  0  0
    3.0310    9.2830   54.5760 C   0  0  0  0  0  0  0  0  0  0  0  0
    3.3500    5.1490   52.3450 C   0  0  0  0  0  0  0  0  0  0  0  0
    1.0770    5.3320   51.5220 C   0  0  0  0  0  0  0  0  0  0  0  0
    3.1980    6.4090   53.2100 C   0  0  0  0  0  0  0  0  0  0  0  0
    1.4050    6.8210   51.6690 C   0  0  0  0  0  0  0  0  0  0  0  0
    2.6180   -0.4480   50.9380 C   0  0  0  0  0  0  0  0  0  0  0  0
    5.1850   10.6100   53.9200 C   0  0  0  0  0  0  0  0  0  0  0  0
    2.1710    4.4170   51.8700 N   0  0  0  0  0  0  0  0  0  0  0  0
    2.0910    7.2720   52.8870 N   0  0  0  0  0  0  0  0  0  0  0  0
    3.0620    2.7520   50.1540 O   0  0  0  0  0  0  0  0  0  0  0  0
    0.8600    2.4320   50.9190 O   0  0  0  0  0  0  0  0  0  0  0  0
    1.2720    9.6180   52.6520 O   0  0  0  0  0  0  0  0  0  0  0  0
    3.5390    9.0760   52.0190 O   0  0  0  0  0  0  0  0  0  0  0  0
    2.0900   -1.6430   50.9200 F   0  0  0  0  0  0  0  0  0  0  0  0
    1.9480    0.2070   50.0040 F   0  0  0  0  0  0  0  0  0  0  0  0
    3.8830   -0.5780   50.5640 F   0  0  0  0  0  0  0  0  0  0  0  0
    6.0350   11.4770   54.4880 F   0  0  0  0  0  0  0  0  0  0  0  0
    5.9540    9.7090   53.3050 F   0  0  0  0  0  0  0  0  0  0  0  0
    4.5700   11.3410   52.9940 F   0  0  0  0  0  0  0  0  0  0  0  0
    2.1760    2.8050   51.2370 S   0  0  0  0  0  0  0  0  0  0  0  0
    2.4590    8.8820   52.9060 S   0  0  0  0  0  0  0  0  0  0  0  0
  1  3  2  0
  1  5  1  0
  2  4  2  0
  2  6  1  0
  3  7  1  0
  4  8  1  0
  5  9  2  0
  6 10  2  0
  7 11  2  0
  8 12  2  0
  9 11  1  0
  9 17  1  0
 10 12  1  0
 10 18  1  0
 11 31  1  0
 12 32  1  0
 13 15  1  0
 13 19  1  0
 14 16  1  0
 14 19  1  0
 15 20  1  0
 16 20  1  0
 17 25  1  0
 17 26  1  0
 17 27  1  0
 18 28  1  0
 18 29  1  0
 18 30  1  0
 19 31  1  0
 20 32  1  0
 21 31  2  0
 22 31  2  0
 23 32  2  0
 24 32  2  0
M  END
>  <washed_aromatic_smiles>  (263) 
c1ccc(c(c1)C(F)(F)F)S(=O)(=O)N2CCN(CC2)S(=O)(=O)c3ccccc3C(F)(F)F

>  <name>  (263) 
neg256222

$$$$
neg140701
     RDKit          3D

 28 30  0  0  0  0  0  0  0  0999 V2000
    5.8380   12.1360   52.8540 C   0  0  0  0  0  0  0  0  0  0  0  0
    5.5510   13.3450   53.4720 C   0  0  0  0  0  0  0  0  0  0  0  0
    2.0250    1.8810   50.4270 C   0  0  0  0  0  0  0  0  0  0  0  0
    1.5920    3.6260   48.8240 C   0  0  0  0  0  0  0  0  0  0  0  0
    5.5130   10.9370   53.4520 C   0  0  0  0  0  0  0  0  0  0  0  0
    2.4910    2.8260   51.3350 C   0  0  0  0  0  0  0  0  0  0  0  0
    2.0440    4.5730   49.7300 C   0  0  0  0  0  0  0  0  0  0  0  0
    5.0420   13.3500   54.7600 C   0  0  0  0  0  0  0  0  0  0  0  0
    1.5220    2.2680   49.1720 C   0  0  0  0  0  0  0  0  0  0  0  0
    4.9830   10.9030   54.7440 C   0  0  0  0  0  0  0  0  0  0  0  0
    2.4460    4.1870   51.0150 C   0  0  0  0  0  0  0  0  0  0  0  0
    4.7990   12.1370   55.3850 C   0  0  0  0  0  0  0  0  0  0  0  0
    0.9130    1.2800   48.2760 C   0  0  0  0  0  0  0  0  0  0  0  0
    5.0530    8.3830   54.4980 C   0  0  0  0  0  0  0  0  0  0  0  0
    2.8420    6.5020   52.0150 C   0  0  0  0  0  0  0  0  0  0  0  0
    4.3390    9.2140   57.8680 C   0  0  0  0  0  0  0  0  0  0  0  0
    3.1320    8.7130   57.0860 C   0  0  0  0  0  0  0  0  0  0  0  0
    5.3730    9.4130   56.7670 C   0  0  0  0  0  0  0  0  0  0  0  0
    3.1680    9.5180   55.8220 C   0  0  0  0  0  0  0  0  0  0  0  0
    4.6390    9.5620   55.4030 C   0  0  0  0  0  0  0  0  0  0  0  0
    2.8750    7.3130   53.3090 C   0  0  0  0  0  0  0  0  0  0  0  0
    0.3350    1.6830   47.1050 N   0  0  0  0  0  0  0  0  0  0  0  0
    2.7550    5.1170   52.0690 N   0  0  0  0  0  0  0  0  0  0  0  0
    0.8650    0.0790   48.5180 O   0  0  0  0  0  0  0  0  0  0  0  0
    6.2490    8.1790   54.2990 O   0  0  0  0  0  0  0  0  0  0  0  0
    2.9180    7.0600   50.9480 O   0  0  0  0  0  0  0  0  0  0  0  0
    4.2290    7.5880   53.7650 O   0  0  0  0  0  0  0  0  0  0  0  0
    4.3770   12.2110   56.6650 F   0  0  0  0  0  0  0  0  0  0  0  0
  1  2  2  0
  1  5  1  0
  2  8  1  0
  3  6  2  0
  3  9  1  0
  4  7  1  0
  4  9  2  0
  5 10  2  0
  6 11  1  0
  7 11  2  0
  8 12  2  0
  9 13  1  0
 10 12  1  0
 10 20  1  0
 11 23  1  0
 12 28  1  0
 13 22  1  0
 13 24  2  0
 14 20  1  0
 14 25  2  0
 14 27  1  0
 15 21  1  0
 15 23  1  0
 15 26  2  0
 16 17  1  0
 16 18  1  0
 17 19  1  0
 18 20  1  0
 19 20  1  0
 21 27  1  0
M  END
>  <washed_aromatic_smiles>  (264) 
c1ccc(c(c1)C2(CCCC2)C(=O)OCC(=O)Nc3ccc(cc3)C(=O)N)F

>  <name>  (264) 
neg140701

$$$$
neg75229
     RDKit          3D

 25 27  0  0  0  0  0  0  0  0999 V2000
    2.5040    1.6730   51.8560 C   0  0  0  0  0  0  0  0  0  0  0  0
    1.9690    0.9950   50.7670 C   0  0  0  0  0  0  0  0  0  0  0  0
    2.7690    3.0370   51.7640 C   0  0  0  0  0  0  0  0  0  0  0  0
    1.7100    1.6790   49.5890 C   0  0  0  0  0  0  0  0  0  0  0  0
    2.5300    3.7450   50.5870 C   0  0  0  0  0  0  0  0  0  0  0  0
    1.9960    3.0440   49.4930 C   0  0  0  0  0  0  0  0  0  0  0  0
    1.7320    6.3720   52.3190 C   0  0  0  0  0  0  0  0  0  0  0  0
    4.2490    9.4270   57.4630 C   0  0  0  0  0  0  0  0  0  0  0  0
    3.5730   10.7840   57.3830 C   0  0  0  0  0  0  0  0  0  0  0  0
    2.9220    7.2420   54.5230 C   0  0  0  0  0  0  0  0  0  0  0  0
    1.6200    8.8070   53.1400 C   0  0  0  0  0  0  0  0  0  0  0  0
    5.5400    9.6320   56.6990 C   0  0  0  0  0  0  0  0  0  0  0  0
    4.4240   11.6400   56.4480 C   0  0  0  0  0  0  0  0  0  0  0  0
    4.1730    8.0100   54.1900 C   0  0  0  0  0  0  0  0  0  0  0  0
    2.9600    9.5020   52.8330 C   0  0  0  0  0  0  0  0  0  0  0  0
    1.7570    7.3360   53.5200 C   0  0  0  0  0  0  0  0  0  0  0  0
    2.8850    5.2320   50.4690 C   0  0  0  0  0  0  0  0  0  0  0  0
    5.3170   10.7320   55.7550 N   0  0  0  0  0  0  0  0  0  0  0  0
    3.9090    9.4050   53.9410 N   0  0  0  0  0  0  0  0  0  0  0  0
    2.8720    6.0250   51.7090 N   0  0  0  0  0  0  0  0  0  0  0  0
    0.6390    5.9570   51.9340 O   0  0  0  0  0  0  0  0  0  0  0  0
    4.8320   11.7230   53.4840 O   0  0  0  0  0  0  0  0  0  0  0  0
    6.3650    9.8560   53.6260 O   0  0  0  0  0  0  0  0  0  0  0  0
    5.1720   10.4810   54.1030 S   0  0  0  0  0  0  0  0  0  0  0  0
    1.6770    3.8290   47.9850 Cl  0  0  0  0  0  0  0  0  0  0  0  0
  1  2  2  0
  1  3  1  0
  2  4  1  0
  3  5  2  0
  4  6  2  0
  5  6  1  0
  5 17  1  0
  6 25  1  0
  7 16  1  0
  7 20  1  0
  7 21  2  0
  8  9  1  0
  8 12  1  0
  9 13  1  0
 10 14  1  0
 10 16  1  0
 11 15  1  0
 11 16  1  0
 12 18  1  0
 13 18  1  0
 14 19  1  0
 15 19  1  0
 17 20  1  0
 18 24  1  0
 19 24  1  0
 22 24  2  0
 23 24  2  0
M  END
>  <washed_aromatic_smiles>  (265) 
c1ccc(c(c1)CNC(=O)C2CCN(CC2)S(=O)(=O)N3CCCC3)Cl

>  <name>  (265) 
neg75229

$$$$
neg5112
     RDKit          3D

 26 28  0  0  0  0  0  0  0  0999 V2000
    1.9040    6.0720   51.2820 C   0  0  0  0  0  0  0  0  0  0  0  0
    2.9550    6.6370   50.5730 C   0  0  0  0  0  0  0  0  0  0  0  0
    3.0670   -1.2020   53.9460 C   0  0  0  0  0  0  0  0  0  0  0  0
    2.7060   -0.6200   52.7610 C   0  0  0  0  0  0  0  0  0  0  0  0
    1.4280    4.8160   50.9290 C   0  0  0  0  0  0  0  0  0  0  0  0
    3.5210    5.9560   49.5010 C   0  0  0  0  0  0  0  0  0  0  0  0
    3.3010   -0.4610   55.0910 C   0  0  0  0  0  0  0  0  0  0  0  0
    2.8860    1.5250   53.8290 C   0  0  0  0  0  0  0  0  0  0  0  0
    2.6670    0.7560   52.6720 C   0  0  0  0  0  0  0  0  0  0  0  0
    2.0140    4.0930   49.8890 C   0  0  0  0  0  0  0  0  0  0  0  0
    3.0410    4.6980   49.1740 C   0  0  0  0  0  0  0  0  0  0  0  0
    3.2480    0.9250   55.0530 C   0  0  0  0  0  0  0  0  0  0  0  0
    2.6020    1.2650   51.3180 C   0  0  0  0  0  0  0  0  0  0  0  0
    5.7170    0.4880   59.6410 C   0  0  0  0  0  0  0  0  0  0  0  0
    5.4510   -0.3970   58.4130 C   0  0  0  0  0  0  0  0  0  0  0  0
    5.4950    1.9900   59.3780 C   0  0  0  0  0  0  0  0  0  0  0  0
    5.8500    0.2500   57.0730 C   0  0  0  0  0  0  0  0  0  0  0  0
    5.8980    2.4560   57.9600 C   0  0  0  0  0  0  0  0  0  0  0  0
    1.5710    2.6780   49.5980 C   0  0  0  0  0  0  0  0  0  0  0  0
    5.3240    1.6170   56.8910 N   0  0  0  0  0  0  0  0  0  0  0  0
    1.4940    1.9030   50.8390 N   0  0  0  0  0  0  0  0  0  0  0  0
    3.5190    1.0300   50.5460 O   0  0  0  0  0  0  0  0  0  0  0  0
    3.4540    3.2400   56.2870 O   0  0  0  0  0  0  0  0  0  0  0  0
    3.0120    1.3700   57.6530 O   0  0  0  0  0  0  0  0  0  0  0  0
    3.6050    4.0530   48.1180 F   0  0  0  0  0  0  0  0  0  0  0  0
    3.7040    1.8710   56.5540 S   0  0  0  0  0  0  0  0  0  0  0  0
  1  2  2  0
  1  5  1  0
  2  6  1  0
  3  4  2  0
  3  7  1  0
  4  9  1  0
  5 10  2  0
  6 11  2  0
  7 12  2  0
  8  9  2  0
  8 12  1  0
  9 13  1  0
 10 11  1  0
 10 19  1  0
 11 25  1  0
 12 26  1  0
 13 21  1  0
 13 22  2  0
 14 15  1  0
 14 16  1  0
 15 17  1  0
 16 18  1  0
 17 20  1  0
 18 20  1  0
 19 21  1  0
 20 26  1  0
 23 26  2  0
 24 26  2  0
M  END
>  <washed_aromatic_smiles>  (266) 
c1ccc(c(c1)CNC(=O)c2cccc(c2)S(=O)(=O)N3CCCCC3)F

>  <name>  (266) 
neg5112

$$$$
neg194748
     RDKit          3D

 30 33  0  0  0  0  0  0  0  0999 V2000
   -0.1790    0.5470   47.7860 C   0  0  0  0  0  0  0  0  0  0  0  0
   -0.0700   -0.5900   48.5760 C   0  0  0  0  0  0  0  0  0  0  0  0
    3.3320    8.6250   52.1990 C   0  0  0  0  0  0  0  0  0  0  0  0
    1.6220    7.1020   52.8340 C   0  0  0  0  0  0  0  0  0  0  0  0
    0.6170    1.6500   48.0330 C   0  0  0  0  0  0  0  0  0  0  0  0
    0.8860   -0.6600   49.5780 C   0  0  0  0  0  0  0  0  0  0  0  0
    3.3730    9.1500   53.4630 C   0  0  0  0  0  0  0  0  0  0  0  0
    1.6260    7.6690   54.1060 C   0  0  0  0  0  0  0  0  0  0  0  0
    2.5910    7.4840   51.9020 C   0  0  0  0  0  0  0  0  0  0  0  0
    1.5230    1.6240   49.1040 C   0  0  0  0  0  0  0  0  0  0  0  0
    1.6590    0.4440   49.8470 C   0  0  0  0  0  0  0  0  0  0  0  0
    2.6120    8.5930   54.4770 C   0  0  0  0  0  0  0  0  0  0  0  0
    2.9190    6.8160   50.6320 C   0  0  0  0  0  0  0  0  0  0  0  0
    4.8680   12.5590   54.5080 C   0  0  0  0  0  0  0  0  0  0  0  0
    4.1560   12.9020   55.8150 C   0  0  0  0  0  0  0  0  0  0  0  0
    5.8820   11.4830   54.8450 C   0  0  0  0  0  0  0  0  0  0  0  0
    3.6260   11.6820   56.6390 C   0  0  0  0  0  0  0  0  0  0  0  0
    5.3570   10.3070   55.7170 C   0  0  0  0  0  0  0  0  0  0  0  0
    2.3860    3.0710   50.8660 C   0  0  0  0  0  0  0  0  0  0  0  0
    2.2560    3.8840   48.5070 C   0  0  0  0  0  0  0  0  0  0  0  0
    2.1190    4.5330   51.2320 C   0  0  0  0  0  0  0  0  0  0  0  0
    3.1410    5.0090   48.9880 C   0  0  0  0  0  0  0  0  0  0  0  0
    2.2860    2.7520   49.4270 N   0  0  0  0  0  0  0  0  0  0  0  0
    2.7410    5.4890   50.3330 N   0  0  0  0  0  0  0  0  0  0  0  0
    3.9610   10.3990   56.0650 N   0  0  0  0  0  0  0  0  0  0  0  0
    3.4580    7.4550   49.7440 O   0  0  0  0  0  0  0  0  0  0  0  0
    1.7870    9.3320   56.8600 O   0  0  0  0  0  0  0  0  0  0  0  0
    3.7810    7.9800   56.7410 O   0  0  0  0  0  0  0  0  0  0  0  0
    2.5970    0.2970   50.8180 F   0  0  0  0  0  0  0  0  0  0  0  0
    3.0000    9.0360   56.1840 S   0  0  0  0  0  0  0  0  0  0  0  0
  1  2  2  0
  1  5  1  0
  2  6  1  0
  3  7  2  0
  3  9  1  0
  4  8  1  0
  4  9  2  0
  5 10  2  0
  6 11  2  0
  7 12  1  0
  8 12  2  0
  9 13  1  0
 10 11  1  0
 10 23  1  0
 11 29  1  0
 12 30  1  0
 13 24  1  0
 13 26  2  0
 14 15  1  0
 14 16  1  0
 15 17  1  0
 16 18  1  0
 17 25  1  0
 18 25  1  0
 19 21  1  0
 19 23  1  0
 20 22  1  0
 20 23  1  0
 21 24  1  0
 22 24  1  0
 25 30  1  0
 27 30  2  0
 28 30  2  0
M  END
>  <washed_aromatic_smiles>  (267) 
c1ccc(c(c1)N2CCN(CC2)C(=O)c3ccc(cc3)S(=O)(=O)N4CCCCC4)F

>  <name>  (267) 
neg194748

$$$$
neg92412
     RDKit          3D

 25 27  0  0  0  0  0  0  0  0999 V2000
    0.5730    1.9400   47.2620 C   0  0  0  0  0  0  0  0  0  0  0  0
    4.8070   11.3290   57.3610 C   0  0  0  0  0  0  0  0  0  0  0  0
    0.4120    0.7190   47.9140 C   0  0  0  0  0  0  0  0  0  0  0  0
    5.2940   12.5060   56.7970 C   0  0  0  0  0  0  0  0  0  0  0  0
    1.2960    2.9710   47.8560 C   0  0  0  0  0  0  0  0  0  0  0  0
    4.5720   10.2160   56.5600 C   0  0  0  0  0  0  0  0  0  0  0  0
    1.0000    0.5000   49.1550 C   0  0  0  0  0  0  0  0  0  0  0  0
    5.5630   12.5700   55.4320 C   0  0  0  0  0  0  0  0  0  0  0  0
    1.8520    2.7840   49.1270 C   0  0  0  0  0  0  0  0  0  0  0  0
    4.8260   10.2840   55.1870 C   0  0  0  0  0  0  0  0  0  0  0  0
    1.7240    1.5270   49.7390 C   0  0  0  0  0  0  0  0  0  0  0  0
    5.3550   11.4540   54.6220 C   0  0  0  0  0  0  0  0  0  0  0  0
    3.3900    8.4320   54.3930 C   0  0  0  0  0  0  0  0  0  0  0  0
    1.3480    4.3610   50.7360 C   0  0  0  0  0  0  0  0  0  0  0  0
    2.9900    5.0220   49.1900 C   0  0  0  0  0  0  0  0  0  0  0  0
    1.8250    5.3430   51.7910 C   0  0  0  0  0  0  0  0  0  0  0  0
    3.4250    6.1140   50.1960 C   0  0  0  0  0  0  0  0  0  0  0  0
    3.2620    7.2630   53.4490 C   0  0  0  0  0  0  0  0  0  0  0  0
    2.6700    7.6300   52.0770 C   0  0  0  0  0  0  0  0  0  0  0  0
    2.4010    3.8540   49.8670 N   0  0  0  0  0  0  0  0  0  0  0  0
    2.3610    6.5150   51.1430 N   0  0  0  0  0  0  0  0  0  0  0  0
    4.5440    9.1730   54.3400 N   0  0  0  0  0  0  0  0  0  0  0  0
    2.4970    8.7280   55.1670 O   0  0  0  0  0  0  0  0  0  0  0  0
    2.2930    1.2990   50.9470 F   0  0  0  0  0  0  0  0  0  0  0  0
    5.7560   11.5350   52.9380 Cl  0  0  0  0  0  0  0  0  0  0  0  0
  1  3  2  0
  1  5  1  0
  2  4  2  0
  2  6  1  0
  3  7  1  0
  4  8  1  0
  5  9  2  0
  6 10  2  0
  7 11  2  0
  8 12  2  0
  9 11  1  0
  9 20  1  0
 10 12  1  0
 10 22  1  0
 11 24  1  0
 12 25  1  0
 13 18  1  0
 13 22  1  0
 13 23  2  0
 14 16  1  0
 14 20  1  0
 15 17  1  0
 15 20  1  0
 16 21  1  0
 17 21  1  0
 18 19  1  0
 19 21  1  0
M  END
>  <washed_aromatic_smiles>  (268) 
c1ccc(c(c1)NC(=O)CCN2CCN(CC2)c3ccccc3F)Cl

>  <name>  (268) 
neg92412

$$$$
neg32564
     RDKit          3D

 27 29  0  0  0  0  0  0  0  0999 V2000
   -0.0510    0.7080   47.6600 C   0  0  0  0  0  0  0  0  0  0  0  0
    0.2540    1.9450   47.1180 C   0  0  0  0  0  0  0  0  0  0  0  0
    4.2160    8.1980   54.4350 C   0  0  0  0  0  0  0  0  0  0  0  0
    2.0980    8.8200   55.3890 C   0  0  0  0  0  0  0  0  0  0  0  0
    0.4890    0.2980   48.8700 C   0  0  0  0  0  0  0  0  0  0  0  0
    1.0620    2.8240   47.8220 C   0  0  0  0  0  0  0  0  0  0  0  0
    4.8780    8.8670   55.4550 C   0  0  0  0  0  0  0  0  0  0  0  0
    2.7520    9.4930   56.4080 C   0  0  0  0  0  0  0  0  0  0  0  0
    2.8120    8.1540   54.3860 C   0  0  0  0  0  0  0  0  0  0  0  0
    1.3130    1.1660   49.5880 C   0  0  0  0  0  0  0  0  0  0  0  0
    1.5800    2.4510   49.0630 C   0  0  0  0  0  0  0  0  0  0  0  0
    4.1460    9.5160   56.4490 C   0  0  0  0  0  0  0  0  0  0  0  0
    2.0840    7.4160   53.3540 C   0  0  0  0  0  0  0  0  0  0  0  0
    2.9850    4.4910   49.3270 C   0  0  0  0  0  0  0  0  0  0  0  0
    1.9010   -0.5830   53.5230 C   0  0  0  0  0  0  0  0  0  0  0  0
    2.8850   -0.8670   52.4020 C   0  0  0  0  0  0  0  0  0  0  0  0
    1.3960    0.8140   53.2820 C   0  0  0  0  0  0  0  0  0  0  0  0
    2.3560   -0.5800   50.9940 C   0  0  0  0  0  0  0  0  0  0  0  0
    0.7710    0.9360   51.8820 C   0  0  0  0  0  0  0  0  0  0  0  0
    3.2720    5.6610   50.2360 C   0  0  0  0  0  0  0  0  0  0  0  0
    2.2560    5.9350   51.3510 C   0  0  0  0  0  0  0  0  0  0  0  0
    1.8000    0.7820   50.8590 N   0  0  0  0  0  0  0  0  0  0  0  0
    2.2880    3.4170   49.8370 N   0  0  0  0  0  0  0  0  0  0  0  0
    2.7840    6.9070   52.2950 N   0  0  0  0  0  0  0  0  0  0  0  0
    0.8720    7.2070   53.4000 O   0  0  0  0  0  0  0  0  0  0  0  0
    3.3990    4.4710   48.1840 O   0  0  0  0  0  0  0  0  0  0  0  0
    4.9570   10.3460   57.7410 Cl  0  0  0  0  0  0  0  0  0  0  0  0
  1  2  2  0
  1  5  1  0
  2  6  1  0
  3  7  2  0
  3  9  1  0
  4  8  1  0
  4  9  2  0
  5 10  2  0
  6 11  2  0
  7 12  1  0
  8 12  2  0
  9 13  1  0
 10 11  1  0
 10 22  1  0
 11 23  1  0
 12 27  1  0
 13 24  1  0
 13 25  2  0
 14 20  1  0
 14 23  1  0
 14 26  2  0
 15 16  1  0
 15 17  1  0
 16 18  1  0
 17 19  1  0
 18 22  1  0
 19 22  1  0
 20 21  1  0
 21 24  1  0
M  END
>  <washed_aromatic_smiles>  (269) 
c1ccc(c(c1)NC(=O)CCNC(=O)c2ccc(cc2)Cl)N3CCCCC3

>  <name>  (269) 
neg32564

$$$$
neg9215
     RDKit          3D

 27 29  0  0  0  0  0  0  0  0999 V2000
    3.2610    7.7720   54.5270 C   0  0  0  0  0  0  0  0  0  0  0  0
    2.0500    8.3980   54.8180 C   0  0  0  0  0  0  0  0  0  0  0  0
    2.8490    2.5200   50.7750 C   0  0  0  0  0  0  0  0  0  0  0  0
    0.9110    1.3970   49.9540 C   0  0  0  0  0  0  0  0  0  0  0  0
    3.4060    7.0210   53.3630 C   0  0  0  0  0  0  0  0  0  0  0  0
    0.9610    8.2360   53.9650 C   0  0  0  0  0  0  0  0  0  0  0  0
    2.9970    1.5930   51.7790 C   0  0  0  0  0  0  0  0  0  0  0  0
    1.0040    0.5010   51.0160 C   0  0  0  0  0  0  0  0  0  0  0  0
    1.8350    2.4300   49.8400 C   0  0  0  0  0  0  0  0  0  0  0  0
    2.3520    6.9240   52.4560 C   0  0  0  0  0  0  0  0  0  0  0  0
    1.1180    7.4930   52.8030 C   0  0  0  0  0  0  0  0  0  0  0  0
    2.0550    0.5920   51.9310 C   0  0  0  0  0  0  0  0  0  0  0  0
    1.8590    5.3870   50.5310 C   0  0  0  0  0  0  0  0  0  0  0  0
    2.6860    1.4950   54.9960 C   0  0  0  0  0  0  0  0  0  0  0  0
    3.7570   -0.6380   55.4620 C   0  0  0  0  0  0  0  0  0  0  0  0
    3.2970    1.9130   56.3460 C   0  0  0  0  0  0  0  0  0  0  0  0
    4.6540    0.0150   56.5400 C   0  0  0  0  0  0  0  0  0  0  0  0
    1.7690    3.4840   48.7540 C   0  0  0  0  0  0  0  0  0  0  0  0
    2.3470    4.8570   49.1760 C   0  0  0  0  0  0  0  0  0  0  0  0
    3.1470    0.2160   54.4480 N   0  0  0  0  0  0  0  0  0  0  0  0
    2.6340    6.3110   51.1900 N   0  0  0  0  0  0  0  0  0  0  0  0
    0.8620    4.9660   51.0750 O   0  0  0  0  0  0  0  0  0  0  0  0
    0.9300   -0.7790   53.8290 O   0  0  0  0  0  0  0  0  0  0  0  0
    2.8990   -1.6800   52.7950 O   0  0  0  0  0  0  0  0  0  0  0  0
    4.6120    1.4270   56.5210 O   0  0  0  0  0  0  0  0  0  0  0  0
    0.0380    7.3510   52.0350 F   0  0  0  0  0  0  0  0  0  0  0  0
    2.2160   -0.5420   53.2900 S   0  0  0  0  0  0  0  0  0  0  0  0
  1  2  2  0
  1  5  1  0
  2  6  1  0
  3  7  2  0
  3  9  1  0
  4  8  1  0
  4  9  2  0
  5 10  2  0
  6 11  2  0
  7 12  1  0
  8 12  2  0
  9 18  1  0
 10 11  1  0
 10 21  1  0
 11 26  1  0
 12 27  1  0
 13 19  1  0
 13 21  1  0
 13 22  2  0
 14 16  1  0
 14 20  1  0
 15 17  1  0
 15 20  1  0
 16 25  1  0
 17 25  1  0
 18 19  1  0
 20 27  1  0
 23 27  2  0
 24 27  2  0
M  END
>  <washed_aromatic_smiles>  (270) 
c1ccc(c(c1)NC(=O)CCc2ccc(cc2)S(=O)(=O)N3CCOCC3)F

>  <name>  (270) 
neg9215

$$$$
neg286429
     RDKit          3D

 26 28  0  0  0  0  0  0  0  0999 V2000
    0.3290    2.3250   47.0280 C   0  0  0  0  0  0  0  0  0  0  0  0
    0.3020    0.9620   47.2300 C   0  0  0  0  0  0  0  0  0  0  0  0
    1.0110    3.1700   47.8980 C   0  0  0  0  0  0  0  0  0  0  0  0
    0.9360    0.4030   48.3190 C   0  0  0  0  0  0  0  0  0  0  0  0
    1.5720    2.6290   49.0500 C   0  0  0  0  0  0  0  0  0  0  0  0
    1.5860    1.2410   49.2310 C   0  0  0  0  0  0  0  0  0  0  0  0
    2.0970    4.8100   50.0860 C   0  0  0  0  0  0  0  0  0  0  0  0
    2.3530   -0.4910   50.8560 C   0  0  0  0  0  0  0  0  0  0  0  0
    2.2160    8.4530   54.1300 C   0  0  0  0  0  0  0  0  0  0  0  0
    2.2650    1.5060   54.6780 C   0  0  0  0  0  0  0  0  0  0  0  0
    3.3190    7.9650   53.1910 C   0  0  0  0  0  0  0  0  0  0  0  0
    0.8980    8.6100   53.3590 C   0  0  0  0  0  0  0  0  0  0  0  0
    3.4630    0.6640   54.8710 C   0  0  0  0  0  0  0  0  0  0  0  0
    1.3610    0.9250   53.5830 C   0  0  0  0  0  0  0  0  0  0  0  0
    2.9140    6.6780   52.4580 C   0  0  0  0  0  0  0  0  0  0  0  0
    0.5310    7.3400   52.5900 C   0  0  0  0  0  0  0  0  0  0  0  0
    3.2580   -0.8250   54.6120 C   0  0  0  0  0  0  0  0  0  0  0  0
    1.2680   -0.5680   53.4710 C   0  0  0  0  0  0  0  0  0  0  0  0
    1.1850    5.5350   51.0540 C   0  0  0  0  0  0  0  0  0  0  0  0
    3.2220   -0.6570   52.0650 C   0  0  0  0  0  0  0  0  0  0  0  0
    1.6230    6.7980   51.7180 N   0  0  0  0  0  0  0  0  0  0  0  0
    2.5720   -1.1410   53.3290 N   0  0  0  0  0  0  0  0  0  0  0  0
    1.9580    3.4550   50.1410 N   0  0  0  0  0  0  0  0  0  0  0  0
    2.3060    0.7680   50.3470 N   0  0  0  0  0  0  0  0  0  0  0  0
    2.8270    5.3300   49.2640 O   0  0  0  0  0  0  0  0  0  0  0  0
    1.7770   -1.4150   50.3450 O   0  0  0  0  0  0  0  0  0  0  0  0
  1  2  2  0
  1  3  1  0
  2  4  1  0
  3  5  2  0
  4  6  2  0
  5  6  1  0
  5 23  1  0
  6 24  1  0
  7 19  1  0
  7 23  1  0
  7 25  2  0
  8 20  1  0
  8 24  1  0
  8 26  2  0
  9 11  1  0
  9 12  1  0
 10 13  1  0
 10 14  1  0
 11 15  1  0
 12 16  1  0
 13 17  1  0
 14 18  1  0
 15 21  1  0
 16 21  1  0
 17 22  1  0
 18 22  1  0
 19 21  1  0
 20 22  1  0
M  CHG  1  21   1
M  END
>  <washed_aromatic_smiles>  (271) 
c1ccc(c(c1)NC(=O)CN2CCCCC2)NC(=O)CN3CCCCC3

>  <name>  (271) 
neg286429

$$$$
neg21924
     RDKit          3D

 30 33  0  0  0  0  0  0  0  0999 V2000
    5.5020   10.6470   54.9350 C   0  0  0  0  0  0  0  0  0  0  0  0
    6.1530    9.6680   54.1970 C   0  0  0  0  0  0  0  0  0  0  0  0
    0.9300    5.3410   50.3180 C   0  0  0  0  0  0  0  0  0  0  0  0
    1.5350    6.0500   51.3420 C   0  0  0  0  0  0  0  0  0  0  0  0
    4.2250   10.4070   55.4020 C   0  0  0  0  0  0  0  0  0  0  0  0
    5.5360    8.4610   53.9260 C   0  0  0  0  0  0  0  0  0  0  0  0
    1.3220    4.0420   50.0300 C   0  0  0  0  0  0  0  0  0  0  0  0
    2.6910    4.0370   51.9650 C   0  0  0  0  0  0  0  0  0  0  0  0
    2.5300    5.4250   52.0830 C   0  0  0  0  0  0  0  0  0  0  0  0
    3.5240    9.2820   54.9610 C   0  0  0  0  0  0  0  0  0  0  0  0
    4.1620    8.3510   54.0950 C   0  0  0  0  0  0  0  0  0  0  0  0
    2.1520    3.3480   50.8950 C   0  0  0  0  0  0  0  0  0  0  0  0
    3.5430    6.1610   52.8150 C   0  0  0  0  0  0  0  0  0  0  0  0
    1.8890    9.1550   56.8120 C   0  0  0  0  0  0  0  0  0  0  0  0
    1.2920    8.4880   54.5150 C   0  0  0  0  0  0  0  0  0  0  0  0
    0.4310    0.5970   50.0000 C   0  0  0  0  0  0  0  0  0  0  0  0
    1.9110   -0.4050   51.6440 C   0  0  0  0  0  0  0  0  0  0  0  0
    0.3750    8.9330   57.1950 C   0  0  0  0  0  0  0  0  0  0  0  0
   -0.1330    8.5690   54.8700 C   0  0  0  0  0  0  0  0  0  0  0  0
   -0.4950    0.9910   51.1380 C   0  0  0  0  0  0  0  0  0  0  0  0
    0.9590    0.0000   52.7530 C   0  0  0  0  0  0  0  0  0  0  0  0
    2.1840    9.1960   55.3740 N   0  0  0  0  0  0  0  0  0  0  0  0
    1.7680    0.5250   50.5320 N   0  0  0  0  0  0  0  0  0  0  0  0
    3.3860    7.4540   53.2430 N   0  0  0  0  0  0  0  0  0  0  0  0
    4.6100    5.6500   52.9590 O   0  0  0  0  0  0  0  0  0  0  0  0
    3.0360    1.9650   49.0040 O   0  0  0  0  0  0  0  0  0  0  0  0
    3.9300    1.4700   51.2200 O   0  0  0  0  0  0  0  0  0  0  0  0
   -0.3770    8.1970   56.2250 O   0  0  0  0  0  0  0  0  0  0  0  0
   -0.3480    0.1000   52.2150 O   0  0  0  0  0  0  0  0  0  0  0  0
    2.8150    1.7710   50.3840 S   0  0  0  0  0  0  0  0  0  0  0  0
  1  2  2  0
  1  5  1  0
  2  6  1  0
  3  4  2  0
  3  7  1  0
  4  9  1  0
  5 10  2  0
  6 11  2  0
  7 12  2  0
  8  9  2  0
  8 12  1  0
  9 13  1  0
 10 11  1  0
 10 22  1  0
 11 24  1  0
 12 30  1  0
 13 24  1  0
 13 25  2  0
 14 18  1  0
 14 22  1  0
 15 19  1  0
 15 22  1  0
 16 20  1  0
 16 23  1  0
 17 21  1  0
 17 23  1  0
 18 28  1  0
 19 28  1  0
 20 29  1  0
 21 29  1  0
 23 30  1  0
 26 30  2  0
 27 30  2  0
M  END
>  <washed_aromatic_smiles>  (272) 
c1ccc(c(c1)NC(=O)c2cccc(c2)S(=O)(=O)N3CCOCC3)N4CCOCC4

>  <name>  (272) 
neg21924

$$$$
neg254612
     RDKit          3D

 30 33  0  0  0  0  0  0  0  0999 V2000
    1.5220    1.8620   48.7480 C   0  0  0  0  0  0  0  0  0  0  0  0
    1.3260    3.1970   48.4170 C   0  0  0  0  0  0  0  0  0  0  0  0
    2.0260    1.5220   49.9990 C   0  0  0  0  0  0  0  0  0  0  0  0
    1.5850    4.1910   49.3510 C   0  0  0  0  0  0  0  0  0  0  0  0
    2.3180    2.5020   50.9440 C   0  0  0  0  0  0  0  0  0  0  0  0
    2.0600    3.8500   50.6230 C   0  0  0  0  0  0  0  0  0  0  0  0
    0.0140    8.6670   56.7600 C   0  0  0  0  0  0  0  0  0  0  0  0
    2.2810    9.0240   56.3320 C   0  0  0  0  0  0  0  0  0  0  0  0
    0.9180    8.3180   54.6400 C   0  0  0  0  0  0  0  0  0  0  0  0
    2.6050    6.1780   51.4160 C   0  0  0  0  0  0  0  0  0  0  0  0
   -3.2860    7.1950   59.4960 C   0  0  0  0  0  0  0  0  0  0  0  0
    5.1370   11.5450   55.6120 C   0  0  0  0  0  0  0  0  0  0  0  0
   -2.1530    8.0320   60.0810 C   0  0  0  0  0  0  0  0  0  0  0  0
   -3.2740    7.1950   57.9740 C   0  0  0  0  0  0  0  0  0  0  0  0
    4.9520   10.2330   54.8270 C   0  0  0  0  0  0  0  0  0  0  0  0
    4.1890   11.6440   56.8130 C   0  0  0  0  0  0  0  0  0  0  0  0
   -1.0860    8.5680   59.0760 C   0  0  0  0  0  0  0  0  0  0  0  0
   -1.8120    7.1300   57.5240 C   0  0  0  0  0  0  0  0  0  0  0  0
    4.7270    9.0100   55.7410 C   0  0  0  0  0  0  0  0  0  0  0  0
    4.0330   10.3310   57.5920 C   0  0  0  0  0  0  0  0  0  0  0  0
    2.9150    2.0380   52.2580 C   0  0  0  0  0  0  0  0  0  0  0  0
    2.4730    7.1440   52.5860 C   0  0  0  0  0  0  0  0  0  0  0  0
    1.2380    9.0710   57.2120 N   0  0  0  0  0  0  0  0  0  0  0  0
   -0.1370    8.3520   55.4580 N   0  0  0  0  0  0  0  0  0  0  0  0
    2.1230    8.6630   55.0600 N   0  0  0  0  0  0  0  0  0  0  0  0
   -1.1100    8.3820   57.6490 N   0  0  0  0  0  0  0  0  0  0  0  0
    3.6300    9.2330   56.7210 N   0  0  0  0  0  0  0  0  0  0  0  0
    2.2040    4.8720   51.6180 N   0  0  0  0  0  0  0  0  0  0  0  0
    3.0840    6.5090   50.3500 O   0  0  0  0  0  0  0  0  0  0  0  0
    0.7620    7.6870   53.0160 S   0  0  0  0  0  0  0  0  0  0  0  0
  1  2  2  0
  1  3  1  0
  2  4  1  0
  3  5  2  0
  4  6  2  0
  5  6  1  0
  5 21  1  0
  6 28  1  0
  7 23  2  0
  7 24  1  0
  7 26  1  0
  8 23  1  0
  8 25  2  0
  8 27  1  0
  9 24  2  0
  9 25  1  0
  9 30  1  0
 10 22  1  0
 10 28  1  0
 10 29  2  0
 11 13  1  0
 11 14  1  0
 12 15  1  0
 12 16  1  0
 13 17  1  0
 14 18  1  0
 15 19  1  0
 16 20  1  0
 17 26  1  0
 18 26  1  0
 19 27  1  0
 20 27  1  0
 22 30  1  0
M  END
>  <washed_aromatic_smiles>  (273) 
Cc1ccccc1NC(=O)CSc2nc(nc(n2)N3CCCCC3)N4CCCCC4

>  <name>  (273) 
neg254612

$$$$
neg232496
     RDKit          3D

 28 31  0  0  0  0  0  0  0  0999 V2000
    6.8680    5.0690   59.9470 C   0  0  0  0  0  0  0  0  0  0  0  0
    5.5000   12.9200   53.4660 C   0  0  0  0  0  0  0  0  0  0  0  0
    5.6120    4.8250   59.4120 C   0  0  0  0  0  0  0  0  0  0  0  0
    7.5720    6.1980   59.5510 C   0  0  0  0  0  0  0  0  0  0  0  0
    5.8830   11.6980   52.9190 C   0  0  0  0  0  0  0  0  0  0  0  0
    4.9970   12.9730   54.7620 C   0  0  0  0  0  0  0  0  0  0  0  0
    1.9310    4.5480   48.9910 C   0  0  0  0  0  0  0  0  0  0  0  0
    3.2720    4.7820   49.2130 C   0  0  0  0  0  0  0  0  0  0  0  0
    5.0720    5.7040   58.4820 C   0  0  0  0  0  0  0  0  0  0  0  0
    7.0190    7.0930   58.6380 C   0  0  0  0  0  0  0  0  0  0  0  0
    5.7330   10.5300   53.6500 C   0  0  0  0  0  0  0  0  0  0  0  0
    4.8570   11.8050   55.5010 C   0  0  0  0  0  0  0  0  0  0  0  0
    0.9970    5.1550   49.8160 C   0  0  0  0  0  0  0  0  0  0  0  0
    3.6530    5.6440   50.2270 C   0  0  0  0  0  0  0  0  0  0  0  0
    5.7540    6.8590   58.0760 C   0  0  0  0  0  0  0  0  0  0  0  0
    5.2060   10.5690   54.9440 C   0  0  0  0  0  0  0  0  0  0  0  0
    1.3460    5.9560   50.8980 C   0  0  0  0  0  0  0  0  0  0  0  0
    2.6900    6.2760   51.0340 C   0  0  0  0  0  0  0  0  0  0  0  0
    5.1980    7.7440   57.0440 C   0  0  0  0  0  0  0  0  0  0  0  0
    5.0440    9.3420   55.6970 C   0  0  0  0  0  0  0  0  0  0  0  0
    3.3310    7.1720   53.2400 C   0  0  0  0  0  0  0  0  0  0  0  0
    0.3100    6.5430   51.8540 C   0  0  0  0  0  0  0  0  0  0  0  0
    3.2420    8.3640   54.1910 C   0  0  0  0  0  0  0  0  0  0  0  0
    5.6900    8.9660   56.7570 N   0  0  0  0  0  0  0  0  0  0  0  0
    4.2260    7.3960   56.2430 N   0  0  0  0  0  0  0  0  0  0  0  0
    4.1620    8.3780   55.3570 N   0  0  0  0  0  0  0  0  0  0  0  0
    2.9770    7.3450   51.9320 N   0  0  0  0  0  0  0  0  0  0  0  0
    3.6360    6.0570   53.5830 O   0  0  0  0  0  0  0  0  0  0  0  0
  1  3  2  0
  1  4  1  0
  2  5  2  0
  2  6  1  0
  3  9  1  0
  4 10  2  0
  5 11  1  0
  6 12  2  0
  7  8  2  0
  7 13  1  0
  8 14  1  0
  9 15  2  0
 10 15  1  0
 11 16  2  0
 12 16  1  0
 13 17  2  0
 14 18  2  0
 15 19  1  0
 16 20  1  0
 17 18  1  0
 17 22  1  0
 18 27  1  0
 19 24  1  0
 19 25  2  0
 20 24  2  0
 20 26  1  0
 21 23  1  0
 21 27  1  0
 21 28  2  0
 23 26  1  0
 25 26  1  0
M  END
>  <washed_aromatic_smiles>  (274) 
Cc1ccccc1NC(=O)Cn2c(nc(n2)c3ccccc3)c4ccccc4

>  <name>  (274) 
neg232496

$$$$
neg66062
     RDKit          3D

 26 28  0  0  0  0  0  0  0  0999 V2000
    1.2090    0.1270   45.8510 C   0  0  0  0  0  0  0  0  0  0  0  0
    0.4500    1.2630   46.0440 C   0  0  0  0  0  0  0  0  0  0  0  0
    1.5130   -0.7100   46.9270 C   0  0  0  0  0  0  0  0  0  0  0  0
   -0.0350    1.5600   47.3010 C   0  0  0  0  0  0  0  0  0  0  0  0
    1.0450   -0.4050   48.2030 C   0  0  0  0  0  0  0  0  0  0  0  0
    0.2050    0.6790   48.3570 C   0  0  0  0  0  0  0  0  0  0  0  0
    2.7750    3.0090   52.1200 C   0  0  0  0  0  0  0  0  0  0  0  0
    0.2170    1.5290   50.6440 C   0  0  0  0  0  0  0  0  0  0  0  0
    3.0850    6.1440   50.7170 C   0  0  0  0  0  0  0  0  0  0  0  0
    1.7080    5.9430   51.3530 C   0  0  0  0  0  0  0  0  0  0  0  0
    3.4350    5.2680   49.5070 C   0  0  0  0  0  0  0  0  0  0  0  0
    1.0740    4.6070   50.9670 C   0  0  0  0  0  0  0  0  0  0  0  0
    2.7990    3.8610   49.5020 C   0  0  0  0  0  0  0  0  0  0  0  0
    3.0440   -0.5760   53.2040 C   0  0  0  0  0  0  0  0  0  0  0  0
    3.2920    0.9020   55.2420 C   0  0  0  0  0  0  0  0  0  0  0  0
    2.3520    0.5210   52.4440 C   0  0  0  0  0  0  0  0  0  0  0  0
    2.5790    1.8730   54.3660 C   0  0  0  0  0  0  0  0  0  0  0  0
    3.0400   -0.4890   54.7520 C   0  0  0  0  0  0  0  0  0  0  0  0
    2.0220    3.3680   50.7640 C   0  0  0  0  0  0  0  0  0  0  0  0
    1.3990   -1.1500   49.4690 C   0  0  0  0  0  0  0  0  0  0  0  0
    2.7430    1.8420   52.8720 N   0  0  0  0  0  0  0  0  0  0  0  0
   -0.3710    0.8260   49.6400 N   0  0  0  0  0  0  0  0  0  0  0  0
    1.3410    2.1960   50.2370 N   0  0  0  0  0  0  0  0  0  0  0  0
    3.1790    3.9780   52.7310 O   0  0  0  0  0  0  0  0  0  0  0  0
   -0.3250    1.6050   51.7410 O   0  0  0  0  0  0  0  0  0  0  0  0
    4.1310   -1.0790   55.3910 O   0  0  0  0  0  0  0  0  0  0  0  0
  1  2  2  0
  1  3  1  0
  2  4  1  0
  3  5  2  0
  4  6  2  0
  5  6  1  0
  5 20  1  0
  6 22  1  0
  7 19  1  0
  7 21  1  0
  7 24  2  0
  8 22  1  0
  8 23  1  0
  8 25  2  0
  9 10  1  0
  9 11  1  0
 10 12  1  0
 11 13  1  0
 12 19  1  0
 13 19  1  0
 14 16  1  0
 14 18  1  0
 15 17  1  0
 15 18  1  0
 16 21  1  0
 17 21  1  0
 18 26  1  0
 19 23  1  0
M  END
>  <washed_aromatic_smiles>  (275) 
Cc1ccccc1NC(=O)NC2(CCCCC2)C(=O)N3CCC(CC3)O

>  <name>  (275) 
neg66062

$$$$
neg214544
     RDKit          3D

 27 30  0  0  0  0  0  0  0  0999 V2000
    6.3090   11.4250   52.4430 C   0  0  0  0  0  0  0  0  0  0  0  0
    6.4210   10.2640   53.1920 C   0  0  0  0  0  0  0  0  0  0  0  0
    5.4730   12.4490   52.8870 C   0  0  0  0  0  0  0  0  0  0  0  0
    5.8510   13.7390   57.9580 C   0  0  0  0  0  0  0  0  0  0  0  0
    6.1530   13.0780   59.1390 C   0  0  0  0  0  0  0  0  0  0  0  0
    1.4140    5.6900   51.6790 C   0  0  0  0  0  0  0  0  0  0  0  0
    2.7090    5.6720   52.1810 C   0  0  0  0  0  0  0  0  0  0  0  0
    5.6910   10.0980   54.3280 C   0  0  0  0  0  0  0  0  0  0  0  0
    4.6990   12.2660   54.0140 C   0  0  0  0  0  0  0  0  0  0  0  0
    5.1710   13.0770   56.9460 C   0  0  0  0  0  0  0  0  0  0  0  0
    5.7540   11.7640   59.2840 C   0  0  0  0  0  0  0  0  0  0  0  0
    0.5830    6.7660   51.9570 C   0  0  0  0  0  0  0  0  0  0  0  0
    3.1610    6.7030   52.9950 C   0  0  0  0  0  0  0  0  0  0  0  0
    4.8310   11.0940   54.7610 C   0  0  0  0  0  0  0  0  0  0  0  0
    4.7810   11.7280   57.0940 C   0  0  0  0  0  0  0  0  0  0  0  0
    5.0680   11.0850   58.2940 C   0  0  0  0  0  0  0  0  0  0  0  0
    1.0440    7.8390   52.7150 C   0  0  0  0  0  0  0  0  0  0  0  0
    2.3130    7.7720   53.2990 C   0  0  0  0  0  0  0  0  0  0  0  0
    4.2620   10.8730   56.0520 C   0  0  0  0  0  0  0  0  0  0  0  0
    4.7200    9.6950   58.4730 C   0  0  0  0  0  0  0  0  0  0  0  0
    3.7240    9.6360   56.3450 C   0  0  0  0  0  0  0  0  0  0  0  0
    3.3630    8.5700   55.4220 C   0  0  0  0  0  0  0  0  0  0  0  0
    0.1970    9.0690   52.8570 C   0  0  0  0  0  0  0  0  0  0  0  0
    2.7140    8.8050   54.2150 N   0  0  0  0  0  0  0  0  0  0  0  0
    5.1950    8.9470   59.3170 O   0  0  0  0  0  0  0  0  0  0  0  0
    3.6920    7.4200   55.6760 O   0  0  0  0  0  0  0  0  0  0  0  0
    3.8340    9.1600   57.6190 O   0  0  0  0  0  0  0  0  0  0  0  0
  1  2  2  0
  1  3  1  0
  2  8  1  0
  3  9  2  0
  4  5  2  0
  4 10  1  0
  5 11  1  0
  6  7  2  0
  6 12  1  0
  7 13  1  0
  8 14  2  0
  9 14  1  0
 10 15  2  0
 11 16  2  0
 12 17  2  0
 13 18  2  0
 14 19  1  0
 15 16  1  0
 15 19  1  0
 16 20  1  0
 17 18  1  0
 17 23  1  0
 18 24  1  0
 19 21  2  0
 20 25  2  0
 20 27  1  0
 21 22  1  0
 21 27  1  0
 22 24  1  0
 22 26  2  0
M  END
>  <washed_aromatic_smiles>  (276) 
Cc1ccccc1NC(=O)c2c(c3ccccc3c(=O)o2)c4ccccc4

>  <name>  (276) 
neg214544

$$$$
neg70870
     RDKit          3D

 25 27  0  0  0  0  0  0  0  0999 V2000
    2.0230    8.6790   53.9000 C   0  0  0  0  0  0  0  0  0  0  0  0
    2.9590    8.8810   52.8970 C   0  0  0  0  0  0  0  0  0  0  0  0
    1.0800    7.6710   53.7560 C   0  0  0  0  0  0  0  0  0  0  0  0
    3.0150    7.9970   51.8290 C   0  0  0  0  0  0  0  0  0  0  0  0
    2.6680    2.5280   50.7750 C   0  0  0  0  0  0  0  0  0  0  0  0
    1.8170    1.5660   48.9610 C   0  0  0  0  0  0  0  0  0  0  0  0
    1.1420    6.7870   52.6790 C   0  0  0  0  0  0  0  0  0  0  0  0
    2.2320    6.8500   51.8080 C   0  0  0  0  0  0  0  0  0  0  0  0
    2.4170    1.2960   50.1510 C   0  0  0  0  0  0  0  0  0  0  0  0
    2.1710    3.5220   49.9650 C   0  0  0  0  0  0  0  0  0  0  0  0
    1.8600    4.9200   50.1870 C   0  0  0  0  0  0  0  0  0  0  0  0
    3.1560   -0.6960   53.2280 C   0  0  0  0  0  0  0  0  0  0  0  0
    1.0280    0.3790   52.5940 C   0  0  0  0  0  0  0  0  0  0  0  0
    3.0200   -0.2100   54.6650 C   0  0  0  0  0  0  0  0  0  0  0  0
    1.0660    0.5520   54.0650 C   0  0  0  0  0  0  0  0  0  0  0  0
   -0.0220    5.8990   52.4030 C   0  0  0  0  0  0  0  0  0  0  0  0
    1.3000    3.4600   47.5730 C   0  0  0  0  0  0  0  0  0  0  0  0
    1.7210    2.8960   48.8240 N   0  0  0  0  0  0  0  0  0  0  0  0
    2.1400   -0.4290   52.2290 N   0  0  0  0  0  0  0  0  0  0  0  0
    2.6560    5.7470   50.9700 N   0  0  0  0  0  0  0  0  0  0  0  0
    0.8090    5.3680   49.7640 O   0  0  0  0  0  0  0  0  0  0  0  0
    1.7400   -1.1960   49.9140 O   0  0  0  0  0  0  0  0  0  0  0  0
    4.0150   -0.6990   50.6250 O   0  0  0  0  0  0  0  0  0  0  0  0
    2.2830    0.9620   54.6360 O   0  0  0  0  0  0  0  0  0  0  0  0
    2.6250   -0.3900   50.6870 S   0  0  0  0  0  0  0  0  0  0  0  0
  1  2  2  0
  1  3  1  0
  2  4  1  0
  3  7  2  0
  4  8  2  0
  5  9  1  0
  5 10  2  0
  6  9  2  0
  6 18  1  0
  7  8  1  0
  7 16  1  0
  8 20  1  0
  9 25  1  0
 10 11  1  0
 10 18  1  0
 11 20  1  0
 11 21  2  0
 12 14  1  0
 12 19  1  0
 13 15  1  0
 13 19  1  0
 14 24  1  0
 15 24  1  0
 17 18  1  0
 19 25  1  0
 22 25  2  0
 23 25  2  0
M  END
>  <washed_aromatic_smiles>  (277) 
Cc1ccccc1NC(=O)c2cc(cn2C)S(=O)(=O)N3CCOCC3

>  <name>  (277) 
neg70870

$$$$
neg195531
     RDKit          3D

 26 28  0  0  0  0  0  0  0  0999 V2000
    3.6910    9.5550   57.0600 C   0  0  0  0  0  0  0  0  0  0  0  0
    4.8310    9.0760   56.4230 C   0  0  0  0  0  0  0  0  0  0  0  0
    3.2980    7.0250   50.0480 C   0  0  0  0  0  0  0  0  0  0  0  0
    2.4320    9.3080   56.5180 C   0  0  0  0  0  0  0  0  0  0  0  0
    4.7110    8.3310   55.2570 C   0  0  0  0  0  0  0  0  0  0  0  0
    3.3690    6.0880   49.0270 C   0  0  0  0  0  0  0  0  0  0  0  0
    2.7260    0.5260   53.2580 C   0  0  0  0  0  0  0  0  0  0  0  0
    2.2240    0.2350   50.9400 C   0  0  0  0  0  0  0  0  0  0  0  0
    2.2220    5.4540   51.4870 C   0  0  0  0  0  0  0  0  0  0  0  0
    2.6950   -0.8440   53.4070 C   0  0  0  0  0  0  0  0  0  0  0  0
    2.2120   -1.1260   51.1680 C   0  0  0  0  0  0  0  0  0  0  0  0
    2.7810    6.7160   51.3050 C   0  0  0  0  0  0  0  0  0  0  0  0
    2.5030    1.0850   52.0010 C   0  0  0  0  0  0  0  0  0  0  0  0
    2.2880    8.5880   55.3340 C   0  0  0  0  0  0  0  0  0  0  0  0
    3.4420    8.0580   54.7430 C   0  0  0  0  0  0  0  0  0  0  0  0
    2.3490    4.4890   50.4870 C   0  0  0  0  0  0  0  0  0  0  0  0
    2.8880    4.8070   49.2390 C   0  0  0  0  0  0  0  0  0  0  0  0
    2.9020    7.6770   52.3950 C   0  0  0  0  0  0  0  0  0  0  0  0
    2.5930    2.5100   51.8430 C   0  0  0  0  0  0  0  0  0  0  0  0
    0.9020    8.3630   54.7290 C   0  0  0  0  0  0  0  0  0  0  0  0
    2.4480   -1.6390   52.3750 N   0  0  0  0  0  0  0  0  0  0  0  0
    3.3360    7.2140   53.6150 N   0  0  0  0  0  0  0  0  0  0  0  0
    2.0580    3.1350   50.7450 N   0  0  0  0  0  0  0  0  0  0  0  0
    2.7330    8.8850   52.2870 O   0  0  0  0  0  0  0  0  0  0  0  0
    3.0970    3.1930   52.7090 O   0  0  0  0  0  0  0  0  0  0  0  0
    2.9670    3.6310   47.9780 Cl  0  0  0  0  0  0  0  0  0  0  0  0
  1  2  2  0
  1  4  1  0
  2  5  1  0
  3  6  2  0
  3 12  1  0
  4 14  2  0
  5 15  2  0
  6 17  1  0
  7 10  2  0
  7 13  1  0
  8 11  1  0
  8 13  2  0
  9 12  2  0
  9 16  1  0
 10 21  1  0
 11 21  2  0
 12 18  1  0
 13 19  1  0
 14 15  1  0
 14 20  1  0
 15 22  1  0
 16 17  2  0
 16 23  1  0
 17 26  1  0
 18 22  1  0
 18 24  2  0
 19 23  1  0
 19 25  2  0
M  END
>  <washed_aromatic_smiles>  (278) 
Cc1ccccc1NC(=O)c2ccc(c(c2)NC(=O)c3ccncc3)Cl

>  <name>  (278) 
neg195531

$$$$
neg182957
     RDKit          3D

 28 30  0  0  0  0  0  0  0  0999 V2000
    5.8820   12.8570   58.8030 C   0  0  0  0  0  0  0  0  0  0  0  0
    5.5920   11.5090   58.9760 C   0  0  0  0  0  0  0  0  0  0  0  0
    0.6540    0.9570   47.9800 C   0  0  0  0  0  0  0  0  0  0  0  0
    0.7360   -0.1720   48.7990 C   0  0  0  0  0  0  0  0  0  0  0  0
    3.1110    9.1340   53.2630 C   0  0  0  0  0  0  0  0  0  0  0  0
    3.5350    7.3960   54.8690 C   0  0  0  0  0  0  0  0  0  0  0  0
    5.6710   13.4580   57.5680 C   0  0  0  0  0  0  0  0  0  0  0  0
    5.0950   10.7580   57.9260 C   0  0  0  0  0  0  0  0  0  0  0  0
    1.0870    2.1990   48.4410 C   0  0  0  0  0  0  0  0  0  0  0  0
    3.0790    8.1780   52.2560 C   0  0  0  0  0  0  0  0  0  0  0  0
    3.4920    6.4590   53.8550 C   0  0  0  0  0  0  0  0  0  0  0  0
    1.2610   -0.0690   50.0860 C   0  0  0  0  0  0  0  0  0  0  0  0
    3.3210    8.7400   54.5910 C   0  0  0  0  0  0  0  0  0  0  0  0
    5.1900   12.7190   56.4880 C   0  0  0  0  0  0  0  0  0  0  0  0
    4.8990   11.3670   56.6860 C   0  0  0  0  0  0  0  0  0  0  0  0
    1.5990    2.3100   49.7380 C   0  0  0  0  0  0  0  0  0  0  0  0
    3.2100    6.8300   52.5670 C   0  0  0  0  0  0  0  0  0  0  0  0
    1.6820    1.1710   50.5420 C   0  0  0  0  0  0  0  0  0  0  0  0
    3.4220    9.6660   55.6930 C   0  0  0  0  0  0  0  0  0  0  0  0
    2.5950    4.5920   49.6130 C   0  0  0  0  0  0  0  0  0  0  0  0
    4.9730   13.3620   55.1330 C   0  0  0  0  0  0  0  0  0  0  0  0
    2.6450    5.9100   50.3500 C   0  0  0  0  0  0  0  0  0  0  0  0
    4.4290   10.5980   55.6050 N   0  0  0  0  0  0  0  0  0  0  0  0
    1.9710    3.5670   50.2800 N   0  0  0  0  0  0  0  0  0  0  0  0
    2.7130    9.6060   56.6930 O   0  0  0  0  0  0  0  0  0  0  0  0
    3.0780    4.4230   48.5070 O   0  0  0  0  0  0  0  0  0  0  0  0
    3.1960    5.8040   51.6580 O   0  0  0  0  0  0  0  0  0  0  0  0
    2.1800    1.2640   51.7980 F   0  0  0  0  0  0  0  0  0  0  0  0
  1  2  2  0
  1  7  1  0
  2  8  1  0
  3  4  2  0
  3  9  1  0
  4 12  1  0
  5 10  2  0
  5 13  1  0
  6 11  1  0
  6 13  2  0
  7 14  2  0
  8 15  2  0
  9 16  2  0
 10 17  1  0
 11 17  2  0
 12 18  2  0
 13 19  1  0
 14 15  1  0
 14 21  1  0
 15 23  1  0
 16 18  1  0
 16 24  1  0
 17 27  1  0
 18 28  1  0
 19 23  1  0
 19 25  2  0
 20 22  1  0
 20 24  1  0
 20 26  2  0
 22 27  1  0
M  END
>  <washed_aromatic_smiles>  (279) 
Cc1ccccc1NC(=O)c2ccc(cc2)OCC(=O)Nc3ccccc3F

>  <name>  (279) 
neg182957

$$$$
neg88854
     RDKit          3D

 26 28  0  0  0  0  0  0  0  0999 V2000
    0.6760    0.8070   47.4930 C   0  0  0  0  0  0  0  0  0  0  0  0
    0.5240    7.5820   52.4390 C   0  0  0  0  0  0  0  0  0  0  0  0
    3.2910   -0.3740   55.1450 C   0  0  0  0  0  0  0  0  0  0  0  0
    0.8470    2.0280   46.8680 C   0  0  0  0  0  0  0  0  0  0  0  0
    3.1410    1.0020   55.1980 C   0  0  0  0  0  0  0  0  0  0  0  0
    1.4740    7.9370   53.3880 C   0  0  0  0  0  0  0  0  0  0  0  0
    0.7600    0.7180   48.8660 C   0  0  0  0  0  0  0  0  0  0  0  0
    0.7480    6.5310   51.5520 C   0  0  0  0  0  0  0  0  0  0  0  0
    3.0550   -1.0430   53.9510 C   0  0  0  0  0  0  0  0  0  0  0  0
    1.1240    3.1720   47.6150 C   0  0  0  0  0  0  0  0  0  0  0  0
    2.8020    1.6880   54.0430 C   0  0  0  0  0  0  0  0  0  0  0  0
    2.6630    7.2330   53.4530 C   0  0  0  0  0  0  0  0  0  0  0  0
    1.0360    1.8490   49.6440 C   0  0  0  0  0  0  0  0  0  0  0  0
    1.9520    5.8160   51.5660 C   0  0  0  0  0  0  0  0  0  0  0  0
    2.6630   -0.3730   52.8070 C   0  0  0  0  0  0  0  0  0  0  0  0
    1.1960    3.0970   48.9990 C   0  0  0  0  0  0  0  0  0  0  0  0
    2.5690    1.0100   52.8580 C   0  0  0  0  0  0  0  0  0  0  0  0
    2.8750    6.1910   52.5600 C   0  0  0  0  0  0  0  0  0  0  0  0
    1.0580    1.6570   51.0730 C   0  0  0  0  0  0  0  0  0  0  0  0
    2.2130    4.7420   50.5880 C   0  0  0  0  0  0  0  0  0  0  0  0
    2.4050   -1.1420   51.5420 C   0  0  0  0  0  0  0  0  0  0  0  0
    1.2460    4.3480   49.6940 N   0  0  0  0  0  0  0  0  0  0  0  0
    2.2770    1.7420   51.6970 N   0  0  0  0  0  0  0  0  0  0  0  0
    0.0730    1.2990   51.7160 O   0  0  0  0  0  0  0  0  0  0  0  0
    3.2610    4.1470   50.4810 O   0  0  0  0  0  0  0  0  0  0  0  0
    4.0150    5.5280   52.7310 F   0  0  0  0  0  0  0  0  0  0  0  0
  1  4  2  0
  1  7  1  0
  2  6  2  0
  2  8  1  0
  3  5  2  0
  3  9  1  0
  4 10  1  0
  5 11  1  0
  6 12  1  0
  7 13  2  0
  8 14  2  0
  9 15  2  0
 10 16  2  0
 11 17  2  0
 12 18  2  0
 13 16  1  0
 13 19  1  0
 14 18  1  0
 14 20  1  0
 15 17  1  0
 15 21  1  0
 16 22  1  0
 17 23  1  0
 18 26  1  0
 19 23  1  0
 19 24  2  0
 20 22  1  0
 20 25  2  0
M  END
>  <washed_aromatic_smiles>  (280) 
Cc1ccccc1NC(=O)c2ccccc2NC(=O)c3ccccc3F

>  <name>  (280) 
neg88854

$$$$
neg60777
     RDKit          3D

 25 27  0  0  0  0  0  0  0  0999 V2000
    5.6950   12.4250   58.7690 C   0  0  0  0  0  0  0  0  0  0  0  0
    5.4620   11.0540   58.7760 C   0  0  0  0  0  0  0  0  0  0  0  0
    1.4810    6.9520   52.7580 C   0  0  0  0  0  0  0  0  0  0  0  0
    5.5680   13.1250   57.5720 C   0  0  0  0  0  0  0  0  0  0  0  0
    5.1380   10.3880   57.6150 C   0  0  0  0  0  0  0  0  0  0  0  0
    1.4000    7.5870   53.9870 C   0  0  0  0  0  0  0  0  0  0  0  0
    3.2600    8.4270   52.1790 C   0  0  0  0  0  0  0  0  0  0  0  0
    2.4960    7.2940   51.8590 C   0  0  0  0  0  0  0  0  0  0  0  0
    5.2230   12.4850   56.3910 C   0  0  0  0  0  0  0  0  0  0  0  0
    5.0430   11.0660   56.3730 C   0  0  0  0  0  0  0  0  0  0  0  0
    3.3070    8.9920   53.4440 C   0  0  0  0  0  0  0  0  0  0  0  0
    2.3530    8.5370   54.3770 C   0  0  0  0  0  0  0  0  0  0  0  0
    2.8050    6.5550   50.6100 C   0  0  0  0  0  0  0  0  0  0  0  0
    2.1180    2.8930   50.6060 C   0  0  0  0  0  0  0  0  0  0  0  0
    2.0560    3.2070   49.1100 C   0  0  0  0  0  0  0  0  0  0  0  0
    1.9260    4.2690   51.2440 C   0  0  0  0  0  0  0  0  0  0  0  0
    2.6410    4.6150   49.0450 C   0  0  0  0  0  0  0  0  0  0  0  0
    5.0050   13.3320   55.1600 C   0  0  0  0  0  0  0  0  0  0  0  0
    2.3910    5.2640   50.3260 N   0  0  0  0  0  0  0  0  0  0  0  0
    4.8140   10.3110   55.3020 N   0  0  0  0  0  0  0  0  0  0  0  0
    3.4840    7.0600   49.7220 O   0  0  0  0  0  0  0  0  0  0  0  0
    4.2180   11.4420   53.1450 O   0  0  0  0  0  0  0  0  0  0  0  0
    5.8560    9.6510   53.1730 O   0  0  0  0  0  0  0  0  0  0  0  0
    4.6450   10.1990   53.7090 S   0  0  2  0  0  0  0  0  0  0  0  0
    2.2750    9.0890   56.0250 Cl  0  0  0  0  0  0  0  0  0  0  0  0
  1  2  2  0
  1  4  1  0
  2  5  1  0
  3  6  2  0
  3  8  1  0
  4  9  2  0
  5 10  2  0
  6 12  1  0
  7  8  2  0
  7 11  1  0
  8 13  1  0
  9 10  1  0
  9 18  1  0
 10 20  1  0
 11 12  2  0
 11 24  1  0
 12 25  1  0
 13 19  1  0
 13 21  2  0
 14 15  1  0
 14 16  1  0
 15 17  1  0
 16 19  1  0
 17 19  1  0
 20 24  2  0
 22 24  2  0
 24 23  1  6
M  CHG  1  23  -1
M  END
>  <washed_aromatic_smiles>  (281) 
Cc1ccccc1NS(=O)(=O)c2cc(ccc2Cl)C(=O)N3CCCC3

>  <name>  (281) 
neg60777

$$$$
neg53330
     RDKit          3D

 26 28  0  0  0  0  0  0  0  0999 V2000
    5.3790    8.9320   59.0760 C   0  0  0  0  0  0  0  0  0  0  0  0
    5.0060    8.1090   58.0190 C   0  0  0  0  0  0  0  0  0  0  0  0
    3.5970    6.4560   53.1850 C   0  0  0  0  0  0  0  0  0  0  0  0
    1.7280    7.7380   52.4410 C   0  0  0  0  0  0  0  0  0  0  0  0
    5.4310   10.3100   58.8750 C   0  0  0  0  0  0  0  0  0  0  0  0
    4.7040    8.6460   56.7840 C   0  0  0  0  0  0  0  0  0  0  0  0
    4.1930    7.6150   53.6560 C   0  0  0  0  0  0  0  0  0  0  0  0
    2.3460    8.9070   52.9030 C   0  0  0  0  0  0  0  0  0  0  0  0
    2.3940    6.5030   52.4820 C   0  0  0  0  0  0  0  0  0  0  0  0
    5.1380   10.8720   57.6460 C   0  0  0  0  0  0  0  0  0  0  0  0
    4.7820   10.0460   56.5430 C   0  0  0  0  0  0  0  0  0  0  0  0
    3.6200    8.8600   53.4760 C   0  0  0  0  0  0  0  0  0  0  0  0
    1.9210    5.3190   51.7380 C   0  0  0  0  0  0  0  0  0  0  0  0
    1.7650    0.0480   50.7060 C   0  0  0  0  0  0  0  0  0  0  0  0
    3.0970    0.4060   51.3710 C   0  0  0  0  0  0  0  0  0  0  0  0
    1.3870    1.1790   49.7440 C   0  0  0  0  0  0  0  0  0  0  0  0
    3.0640    1.8090   51.9990 C   0  0  0  0  0  0  0  0  0  0  0  0
    1.4270    2.5500   50.4300 C   0  0  0  0  0  0  0  0  0  0  0  0
    5.2970   12.3690   57.4460 C   0  0  0  0  0  0  0  0  0  0  0  0
    2.7110    2.8840   51.0400 N   0  0  0  0  0  0  0  0  0  0  0  0
    4.6010   10.6270   55.3580 N   0  0  0  0  0  0  0  0  0  0  0  0
    2.6840    4.1670   51.8360 N   0  0  0  0  0  0  0  0  0  0  0  0
    0.9100    5.3330   51.0350 O   0  0  0  0  0  0  0  0  0  0  0  0
    4.2170   11.3940   53.0440 O   0  0  0  0  0  0  0  0  0  0  0  0
    6.0490    9.8610   53.5050 O   0  0  0  0  0  0  0  0  0  0  0  0
    4.7040   10.2750   53.7930 S   0  0  2  0  0  0  0  0  0  0  0  0
  1  2  2  0
  1  5  1  0
  2  6  1  0
  3  7  2  0
  3  9  1  0
  4  8  1  0
  4  9  2  0
  5 10  2  0
  6 11  2  0
  7 12  1  0
  8 12  2  0
  9 13  1  0
 10 11  1  0
 10 19  1  0
 11 21  1  0
 12 26  1  0
 13 22  1  0
 13 23  2  0
 14 15  1  0
 14 16  1  0
 15 17  1  0
 16 18  1  0
 17 20  1  0
 18 20  1  0
 20 22  1  0
 21 26  2  0
 24 26  2  0
 26 25  1  6
M  CHG  1  25  -1
M  END
>  <washed_aromatic_smiles>  (282) 
Cc1ccccc1NS(=O)(=O)c2ccc(cc2)C(=O)NN3CCCCC3

>  <name>  (282) 
neg53330

$$$$
neg153549
     RDKit          3D

 25 26  0  0  0  0  0  0  0  0999 V2000
    2.4410    3.5710   49.6450 C   0  0  0  0  0  0  0  0  0  0  0  0
    3.3690    4.4950   49.1800 C   0  0  0  0  0  0  0  0  0  0  0  0
    1.5620    3.9230   50.6650 C   0  0  0  0  0  0  0  0  0  0  0  0
    3.4850    5.7250   49.8100 C   0  0  0  0  0  0  0  0  0  0  0  0
    4.8660   10.9420   58.3870 C   0  0  0  0  0  0  0  0  0  0  0  0
    1.5670    5.2110   51.2010 C   0  0  0  0  0  0  0  0  0  0  0  0
    2.6240    6.0430   50.8570 C   0  0  0  0  0  0  0  0  0  0  0  0
    4.3310   10.5720   57.1640 C   0  0  0  0  0  0  0  0  0  0  0  0
    5.4860   12.1810   58.4510 C   0  0  0  0  0  0  0  0  0  0  0  0
    5.0650   12.5330   56.2360 C   0  0  0  0  0  0  0  0  0  0  0  0
    3.2660    8.4240   53.6010 C   0  0  0  0  0  0  0  0  0  0  0  0
    5.3390   11.3860   53.1560 C   0  0  0  0  0  0  0  0  0  0  0  0
    0.4110    5.7790   52.0180 C   0  0  0  0  0  0  0  0  0  0  0  0
    3.2140    7.0640   52.9830 C   0  0  0  0  0  0  0  0  0  0  0  0
    5.0270   12.8520   53.2510 C   0  0  0  0  0  0  0  0  0  0  0  0
    4.4320   11.3580   56.0970 N   0  0  0  0  0  0  0  0  0  0  0  0
    5.6000   12.9660   57.3880 N   0  0  0  0  0  0  0  0  0  0  0  0
    3.6670    9.3760   57.0180 N   0  0  0  0  0  0  0  0  0  0  0  0
    5.9880   12.6650   59.6310 N   0  0  0  0  0  0  0  0  0  0  0  0
    4.3220    9.1710   53.2170 N   0  0  0  0  0  0  0  0  0  0  0  0
    4.2600   10.5930   53.3000 N   0  0  0  0  0  0  0  0  0  0  0  0
    2.3820    8.8760   54.3190 O   0  0  0  0  0  0  0  0  0  0  0  0
    6.4580   10.9260   52.9690 O   0  0  0  0  0  0  0  0  0  0  0  0
    2.8270    7.1780   51.5770 O   0  0  0  0  0  0  0  0  0  0  0  0
    5.1950   13.6220   54.8920 S   0  0  0  0  0  0  0  0  0  0  0  0
  1  2  2  0
  1  3  1  0
  2  4  1  0
  3  6  2  0
  4  7  2  0
  5  8  2  0
  5  9  1  0
  6  7  1  0
  6 13  1  0
  7 24  1  0
  8 16  1  0
  8 18  1  0
  9 17  2  0
  9 19  1  0
 10 16  2  0
 10 17  1  0
 10 25  1  0
 11 14  1  0
 11 20  1  0
 11 22  2  0
 12 15  1  0
 12 21  1  0
 12 23  2  0
 14 24  1  0
 15 25  1  0
 20 21  1  0
M  END
>  <washed_aromatic_smiles>  (283) 
Cc1ccccc1OCC(=O)NNC(=O)CSc2nc(cc(n2)N)N

>  <name>  (283) 
neg153549

$$$$
neg32124
     RDKit          3D

 29 31  0  0  0  0  0  0  0  0999 V2000
    3.6820    9.3020   56.5310 C   0  0  0  0  0  0  0  0  0  0  0  0
    4.7680    9.0890   55.6880 C   0  0  0  0  0  0  0  0  0  0  0  0
    2.3880    9.0600   56.0760 C   0  0  0  0  0  0  0  0  0  0  0  0
    1.8470    3.3660   47.6820 C   0  0  0  0  0  0  0  0  0  0  0  0
    2.3420    4.1890   48.6740 C   0  0  0  0  0  0  0  0  0  0  0  0
    4.5650    8.6390   54.3890 C   0  0  0  0  0  0  0  0  0  0  0  0
    1.6280    2.5520   50.2710 C   0  0  0  0  0  0  0  0  0  0  0  0
    2.1640    8.6050   54.7760 C   0  0  0  0  0  0  0  0  0  0  0  0
    1.1540    2.1930   47.9410 C   0  0  0  0  0  0  0  0  0  0  0  0
    2.1820    3.7960   49.9930 C   0  0  0  0  0  0  0  0  0  0  0  0
    3.2670    8.3920   53.9440 C   0  0  0  0  0  0  0  0  0  0  0  0
    1.0910    1.7470   49.2550 C   0  0  0  0  0  0  0  0  0  0  0  0
    2.9660    5.8990   51.1650 C   0  0  0  0  0  0  0  0  0  0  0  0
    2.4220    0.7490   53.8840 C   0  0  0  0  0  0  0  0  0  0  0  0
    3.1420   -0.4430   53.3570 C   0  0  0  0  0  0  0  0  0  0  0  0
    1.0150    0.3380   53.6450 C   0  0  0  0  0  0  0  0  0  0  0  0
    3.3780   -0.2430   51.8500 C   0  0  0  0  0  0  0  0  0  0  0  0
    0.3720    0.3230   52.2510 C   0  0  0  0  0  0  0  0  0  0  0  0
    2.2710   -0.9660   51.1260 C   0  0  0  0  0  0  0  0  0  0  0  0
    0.7550    8.3400   54.2790 C   0  0  0  0  0  0  0  0  0  0  0  0
    0.5130    1.4160   46.7930 C   0  0  0  0  0  0  0  0  0  0  0  0
    3.0480    6.4600   52.5670 C   0  0  0  0  0  0  0  0  0  0  0  0
    1.0290   -0.2300   51.0620 N   0  0  0  0  0  0  0  0  0  0  0  0
    2.5240    4.5940   51.1170 N   0  0  0  0  0  0  0  0  0  0  0  0
    3.2960    6.5100   50.1700 O   0  0  0  0  0  0  0  0  0  0  0  0
   -1.0180    0.2790   49.7670 O   0  0  0  0  0  0  0  0  0  0  0  0
    0.8210   -0.8020   48.6330 O   0  0  0  0  0  0  0  0  0  0  0  0
    3.0820    7.9040   52.6730 O   0  0  0  0  0  0  0  0  0  0  0  0
    0.3830    0.1390   49.6110 S   0  0  0  0  0  0  0  0  0  0  0  0
  1  2  2  0
  1  3  1  0
  2  6  1  0
  3  8  2  0
  4  5  2  0
  4  9  1  0
  5 10  1  0
  6 11  2  0
  7 10  2  0
  7 12  1  0
  8 11  1  0
  8 20  1  0
  9 12  2  0
  9 21  1  0
 10 24  1  0
 11 28  1  0
 12 29  1  0
 13 22  1  0
 13 24  1  0
 13 25  2  0
 14 15  1  0
 14 16  1  0
 15 17  1  0
 16 18  1  0
 17 19  1  0
 18 23  1  0
 19 23  1  0
 22 28  1  0
 23 29  1  0
 26 29  2  0
 27 29  2  0
M  END
>  <washed_aromatic_smiles>  (284) 
Cc1ccccc1OCC(=O)Nc2ccc(c(c2)S(=O)(=O)N3CCCCCC3)C

>  <name>  (284) 
neg32124

$$$$
neg89643
     RDKit          3D

 31 34  0  0  0  0  0  0  0  0999 V2000
    5.1050    8.1530   58.6320 C   0  0  0  0  0  0  0  0  0  0  0  0
    5.1550    6.8750   58.1050 C   0  0  0  0  0  0  0  0  0  0  0  0
    1.2990    3.8790   47.7840 C   0  0  0  0  0  0  0  0  0  0  0  0
    0.9930    2.5350   47.8080 C   0  0  0  0  0  0  0  0  0  0  0  0
    4.4280    9.1370   57.9310 C   0  0  0  0  0  0  0  0  0  0  0  0
    4.6200    6.6180   56.8500 C   0  0  0  0  0  0  0  0  0  0  0  0
    1.7990    4.5450   48.8710 C   0  0  0  0  0  0  0  0  0  0  0  0
    1.0430    1.8840   49.0180 C   0  0  0  0  0  0  0  0  0  0  0  0
    3.8650    8.8780   56.6820 C   0  0  0  0  0  0  0  0  0  0  0  0
    4.1000    7.6440   56.0290 C   0  0  0  0  0  0  0  0  0  0  0  0
    1.8620    3.9510   50.1250 C   0  0  0  0  0  0  0  0  0  0  0  0
    1.3230    2.6110   50.1800 C   0  0  0  0  0  0  0  0  0  0  0  0
    2.9050    7.0890   52.3060 C   0  0  0  0  0  0  0  0  0  0  0  0
    3.4500    6.5130   53.4000 C   0  0  0  0  0  0  0  0  0  0  0  0
    2.7770    6.2980   51.1110 C   0  0  0  0  0  0  0  0  0  0  0  0
    3.0890    4.3430   52.4160 C   0  0  0  0  0  0  0  0  0  0  0  0
    4.1060    8.7040   53.7330 C   0  0  0  0  0  0  0  0  0  0  0  0
    3.1110   -0.0740   51.8060 C   0  0  0  0  0  0  0  0  0  0  0  0
    2.9760    9.9640   56.1660 C   0  0  0  0  0  0  0  0  0  0  0  0
   -0.0680    0.8660   51.4370 C   0  0  0  0  0  0  0  0  0  0  0  0
    3.7250    1.2950   51.5860 C   0  0  0  0  0  0  0  0  0  0  0  0
    3.7120    5.1700   53.2920 N   0  0  0  0  0  0  0  0  0  0  0  0
    3.8560    7.5160   54.4560 N   0  0  0  0  0  0  0  0  0  0  0  0
    2.4850    4.8620   51.2500 N   0  0  0  0  0  0  0  0  0  0  0  0
    3.2190    6.7300   50.0420 O   0  0  0  0  0  0  0  0  0  0  0  0
    3.0200   -0.5130   52.9740 O   0  0  0  0  0  0  0  0  0  0  0  0
    2.7170   -0.6920   50.7940 O   0  0  0  0  0  0  0  0  0  0  0  0
    0.8360    1.9950   51.3040 O   0  0  0  0  0  0  0  0  0  0  0  0
    5.4090    9.7480   54.0050 S   0  0  0  0  0  0  0  0  0  0  0  0
    2.9620    8.8190   52.4340 S   0  0  0  0  0  0  0  0  0  0  0  0
    3.0840    2.5870   52.7190 S   0  0  0  0  0  0  0  0  0  0  0  0
  1  2  2  0
  1  5  1  0
  2  6  1  0
  3  4  2  0
  3  7  1  0
  4  8  1  0
  5  9  2  0
  6 10  2  0
  7 11  2  0
  8 12  2  0
  9 10  1  0
  9 19  1  0
 10 23  1  0
 11 12  1  0
 11 24  1  0
 12 28  1  0
 13 14  2  0
 13 15  1  0
 13 30  1  0
 14 22  1  0
 14 23  1  0
 15 24  1  0
 15 25  2  0
 16 22  2  0
 16 24  1  0
 16 31  1  0
 17 23  1  0
 17 29  2  0
 17 30  1  0
 18 21  1  0
 18 26  1  0
 18 27  2  0
 20 28  1  0
 21 31  1  0
M  CHG  1  26  -1
M  END
>  <washed_aromatic_smiles>  (285) 
Cc1ccccc1n2c3c(c(=O)n(c(n3)SCC(=O)O)c4ccccc4OC)sc2=S

>  <name>  (285) 
neg89643

$$$$
neg36178
     RDKit          3D

 26 28  0  0  0  0  0  0  0  0999 V2000
    3.0500    8.7830   53.9590 C   0  0  0  0  0  0  0  0  0  0  0  0
    3.1180    2.7290   50.9450 C   0  0  0  0  0  0  0  0  0  0  0  0
    1.7810    8.5560   53.4500 C   0  0  0  0  0  0  0  0  0  0  0  0
    3.5690    1.4660   51.3290 C   0  0  0  0  0  0  0  0  0  0  0  0
    0.8860    2.0960   51.2600 C   0  0  0  0  0  0  0  0  0  0  0  0
    4.0010    7.7810   53.8610 C   0  0  0  0  0  0  0  0  0  0  0  0
    1.8150    3.1170   51.0890 C   0  0  0  0  0  0  0  0  0  0  0  0
    1.5110    7.3370   52.8500 C   0  0  0  0  0  0  0  0  0  0  0  0
    1.3210    0.8140   51.1900 C   0  0  0  0  0  0  0  0  0  0  0  0
    2.6080    0.4970   51.5620 C   0  0  0  0  0  0  0  0  0  0  0  0
    2.5460    6.4120   52.7140 C   0  0  0  0  0  0  0  0  0  0  0  0
    1.6210    4.5530   51.1530 C   0  0  0  0  0  0  0  0  0  0  0  0
    0.7150    1.5650   45.7560 C   0  0  0  0  0  0  0  0  0  0  0  0
    1.1490    0.1820   45.9970 C   0  0  0  0  0  0  0  0  0  0  0  0
   -0.0180    2.1280   46.9210 C   0  0  0  0  0  0  0  0  0  0  0  0
    0.9430   -0.2840   47.4280 C   0  0  0  0  0  0  0  0  0  0  0  0
    0.8370    1.9930   48.1740 C   0  0  0  0  0  0  0  0  0  0  0  0
    0.1110    7.0270   52.4510 C   0  0  0  0  0  0  0  0  0  0  0  0
    3.7410    6.6200   53.2610 N   0  0  0  0  0  0  0  0  0  0  0  0
    1.1580    0.6060   48.5220 N   0  0  0  0  0  0  0  0  0  0  0  0
    2.4500    5.1510   52.1050 N   0  0  0  0  0  0  0  0  0  0  0  0
    0.9100    5.1870   50.3960 O   0  0  0  0  0  0  0  0  0  0  0  0
    1.0630   -1.3870   49.9470 O   0  0  0  0  0  0  0  0  0  0  0  0
   -0.8320    0.1500   49.9780 O   0  0  0  0  0  0  0  0  0  0  0  0
    0.5730   -0.0660   49.9040 S   0  0  0  0  0  0  0  0  0  0  0  0
    2.9120   -1.0390   52.2690 Cl  0  0  0  0  0  0  0  0  0  0  0  0
  1  3  2  0
  1  6  1  0
  2  4  2  0
  2  7  1  0
  3  8  1  0
  4 10  1  0
  5  7  2  0
  5  9  1  0
  6 19  2  0
  7 12  1  0
  8 11  2  0
  8 18  1  0
  9 10  2  0
  9 25  1  0
 10 26  1  0
 11 19  1  0
 11 21  1  0
 12 21  1  0
 12 22  2  0
 13 14  1  0
 13 15  1  0
 14 16  1  0
 15 17  1  0
 16 20  1  0
 17 20  1  0
 20 25  1  0
 23 25  2  0
 24 25  2  0
M  END
>  <washed_aromatic_smiles>  (286) 
Cc1cccnc1NC(=O)c2ccc(c(c2)S(=O)(=O)N3CCCCC3)Cl

>  <name>  (286) 
neg36178

$$$$
neg295028
     RDKit          3D

 25 27  0  0  0  0  0  0  0  0999 V2000
    1.8640   -0.7510   50.5600 C   0  0  0  0  0  0  0  0  0  0  0  0
    1.0510   -0.4310   49.4710 C   0  0  0  0  0  0  0  0  0  0  0  0
    2.6800    0.2140   51.1400 C   0  0  0  0  0  0  0  0  0  0  0  0
    1.7140    5.4910   51.6440 C   0  0  0  0  0  0  0  0  0  0  0  0
    3.2270    6.3150   49.9430 C   0  0  0  0  0  0  0  0  0  0  0  0
    1.0780    0.8510   48.9350 C   0  0  0  0  0  0  0  0  0  0  0  0
    2.7080    1.4990   50.6170 C   0  0  0  0  0  0  0  0  0  0  0  0
    1.5190    4.3480   50.8810 C   0  0  0  0  0  0  0  0  0  0  0  0
    3.0360    5.1690   49.1850 C   0  0  0  0  0  0  0  0  0  0  0  0
    2.5870    6.4680   51.1770 C   0  0  0  0  0  0  0  0  0  0  0  0
    1.9200    1.8030   49.5040 C   0  0  0  0  0  0  0  0  0  0  0  0
    2.1820    4.1890   49.6670 C   0  0  0  0  0  0  0  0  0  0  0  0
    5.5050   12.5690   56.6600 C   0  0  0  0  0  0  0  0  0  0  0  0
    4.6700   10.8390   55.6660 C   0  0  0  0  0  0  0  0  0  0  0  0
    3.1810    7.7580   53.2280 C   0  0  0  0  0  0  0  0  0  0  0  0
    5.9070   13.5200   57.7720 C   0  0  0  0  0  0  0  0  0  0  0  0
    3.6430    9.1250   53.6880 C   0  0  0  0  0  0  0  0  0  0  0  0
    5.6780   12.7300   55.3840 N   0  0  0  0  0  0  0  0  0  0  0  0
    5.1490   11.6300   54.7390 N   0  0  0  0  0  0  0  0  0  0  0  0
    4.8850   11.4000   56.8580 N   0  0  0  0  0  0  0  0  0  0  0  0
    4.5120   10.8260   58.1350 N   0  0  0  0  0  0  0  0  0  0  0  0
    2.8120    7.6630   51.9080 N   0  0  0  0  0  0  0  0  0  0  0  0
    3.1970    6.7780   53.9460 O   0  0  0  0  0  0  0  0  0  0  0  0
    1.9770    3.0510   48.9200 O   0  0  0  0  0  0  0  0  0  0  0  0
    3.8480    9.2960   55.5020 S   0  0  0  0  0  0  0  0  0  0  0  0
  1  2  2  0
  1  3  1  0
  2  6  1  0
  3  7  2  0
  4  8  2  0
  4 10  1  0
  5  9  1  0
  5 10  2  0
  6 11  2  0
  7 11  1  0
  8 12  1  0
  9 12  2  0
 10 22  1  0
 11 24  1  0
 12 24  1  0
 13 16  1  0
 13 18  2  0
 13 20  1  0
 14 19  2  0
 14 20  1  0
 14 25  1  0
 15 17  1  0
 15 22  1  0
 15 23  2  0
 17 25  1  0
 18 19  1  0
 20 21  1  0
M  END
>  <washed_aromatic_smiles>  (287) 
Cc1nnc(n1N)SCC(=O)Nc2ccc(cc2)Oc3ccccc3

>  <name>  (287) 
neg295028

$$$$
neg142167
     RDKit          3D

 25 28  0  0  0  0  0  0  0  0999 V2000
    1.8910    4.6250   48.8440 C   0  0  0  0  0  0  0  0  0  0  0  0
    5.7590   13.6440   57.6640 C   0  0  0  0  0  0  0  0  0  0  0  0
    3.2630    4.7720   48.9940 C   0  0  0  0  0  0  0  0  0  0  0  0
    5.8260   12.9340   58.8610 C   0  0  0  0  0  0  0  0  0  0  0  0
    1.0510    5.1700   49.7960 C   0  0  0  0  0  0  0  0  0  0  0  0
    5.4920   12.9860   56.4720 C   0  0  0  0  0  0  0  0  0  0  0  0
    3.7600    5.4080   50.1150 C   0  0  0  0  0  0  0  0  0  0  0  0
    5.5990   11.5710   58.8660 C   0  0  0  0  0  0  0  0  0  0  0  0
    1.5370    5.7970   50.9510 C   0  0  0  0  0  0  0  0  0  0  0  0
    5.3090   11.5960   56.4620 C   0  0  0  0  0  0  0  0  0  0  0  0
    2.9160    5.8330   51.1560 C   0  0  0  0  0  0  0  0  0  0  0  0
    5.3580   10.8900   57.6710 C   0  0  0  0  0  0  0  0  0  0  0  0
    0.6960    6.5010   51.9010 C   0  0  0  0  0  0  0  0  0  0  0  0
    5.1150   10.8430   55.2440 C   0  0  0  0  0  0  0  0  0  0  0  0
    2.6590    6.9820   53.1710 C   0  0  0  0  0  0  0  0  0  0  0  0
    0.6040    8.3160   53.5860 C   0  0  0  0  0  0  0  0  0  0  0  0
    4.6920    8.5730   54.2800 C   0  0  0  0  0  0  0  0  0  0  0  0
    3.4130    6.3000   52.3640 N   0  0  0  0  0  0  0  0  0  0  0  0
    5.2520    9.4950   57.6930 N   0  0  0  0  0  0  0  0  0  0  0  0
    5.0970    8.8400   56.6090 N   0  0  0  0  0  0  0  0  0  0  0  0
    1.3250    7.2390   52.8850 N   0  0  0  0  0  0  0  0  0  0  0  0
    5.0120    9.4600   55.3920 N   0  0  0  0  0  0  0  0  0  0  0  0
   -0.5260    6.5210   51.8980 O   0  0  0  0  0  0  0  0  0  0  0  0
    5.0560   11.3370   54.1170 O   0  0  0  0  0  0  0  0  0  0  0  0
    3.2160    7.5990   54.6850 S   0  0  0  0  0  0  0  0  0  0  0  0
  1  3  2  0
  1  5  1  0
  2  4  2  0
  2  6  1  0
  3  7  1  0
  4  8  1  0
  5  9  2  0
  6 10  2  0
  7 11  2  0
  8 12  2  0
  9 11  1  0
  9 13  1  0
 10 12  1  0
 10 14  1  0
 11 18  1  0
 12 19  1  0
 13 21  1  0
 13 23  2  0
 14 22  1  0
 14 24  2  0
 15 18  2  0
 15 21  1  0
 15 25  1  0
 16 21  1  0
 17 22  1  0
 17 25  1  0
 19 20  2  0
 20 22  1  0
M  END
>  <washed_aromatic_smiles>  (288) 
Cn1c(=O)c2ccccc2nc1SCn3c(=O)c4ccccc4nn3

>  <name>  (288) 
neg142167

$$$$
neg302018
     RDKit          3D

 25 27  0  0  0  0  0  0  0  0999 V2000
    2.1700    9.1090   57.1360 C   0  0  0  0  0  0  0  0  0  0  0  0
    0.6200    8.6190   55.3510 C   0  0  0  0  0  0  0  0  0  0  0  0
    3.2130    9.1040   56.2440 C   0  0  0  0  0  0  0  0  0  0  0  0
    1.6780    8.6690   54.4470 C   0  0  0  0  0  0  0  0  0  0  0  0
    0.8590    8.8990   56.7150 C   0  0  0  0  0  0  0  0  0  0  0  0
    2.9730    8.9580   54.8900 C   0  0  0  0  0  0  0  0  0  0  0  0
   -3.4730    7.6210   58.7190 C   0  0  0  0  0  0  0  0  0  0  0  0
   -4.3590    7.7120   59.7420 C   0  0  0  0  0  0  0  0  0  0  0  0
   -2.0990    7.9420   58.9480 C   0  0  0  0  0  0  0  0  0  0  0  0
   -3.9410    8.0640   61.0450 C   0  0  0  0  0  0  0  0  0  0  0  0
   -1.1670    7.9210   57.8400 C   0  0  0  0  0  0  0  0  0  0  0  0
    5.2570   13.0400   53.5360 C   0  0  0  0  0  0  0  0  0  0  0  0
    5.3710   12.9230   55.0490 C   0  0  0  0  0  0  0  0  0  0  0  0
    5.4380   11.6120   53.0560 C   0  0  0  0  0  0  0  0  0  0  0  0
    4.9320   11.4870   55.3400 C   0  0  0  0  0  0  0  0  0  0  0  0
   -2.0370    8.5050   62.4970 C   0  0  0  0  0  0  0  0  0  0  0  0
   -1.6940    8.2330   60.1600 N   0  0  0  0  0  0  0  0  0  0  0  0
   -2.5760    8.2650   61.1900 N   0  0  0  0  0  0  0  0  0  0  0  0
    4.7090   10.8530   54.0340 N   0  0  0  0  0  0  0  0  0  0  0  0
   -0.1670    8.8770   57.7110 N   0  0  0  0  0  0  0  0  0  0  0  0
   -4.7040    8.1840   62.0140 O   0  0  0  0  0  0  0  0  0  0  0  0
   -1.2300    7.0560   56.9920 O   0  0  0  0  0  0  0  0  0  0  0  0
    5.4320    8.4410   54.1910 O   0  0  0  0  0  0  0  0  0  0  0  0
    3.8460    9.0920   52.4650 O   0  0  0  0  0  0  0  0  0  0  0  0
    4.3310    9.2540   53.7890 S   0  0  0  0  0  0  0  0  0  0  0  0
  1  3  2  0
  1  5  1  0
  2  4  1  0
  2  5  2  0
  3  6  1  0
  4  6  2  0
  5 20  1  0
  6 25  1  0
  7  8  2  0
  7  9  1  0
  8 10  1  0
  9 11  1  0
  9 17  2  0
 10 18  1  0
 10 21  2  0
 11 20  1  0
 11 22  2  0
 12 13  1  0
 12 14  1  0
 13 15  1  0
 14 19  1  0
 15 19  1  0
 16 18  1  0
 17 18  1  0
 19 25  1  0
 23 25  2  0
 24 25  2  0
M  END
>  <washed_aromatic_smiles>  (289) 
Cn1c(=O)ccc(n1)C(=O)Nc2ccc(cc2)S(=O)(=O)N3CCCC3

>  <name>  (289) 
neg302018

$$$$
neg281770
     RDKit          3D

 27 29  0  0  0  0  0  0  0  0999 V2000
    3.5420    5.9510   48.6020 C   0  0  0  0  0  0  0  0  0  0  0  0
    3.5710    4.6750   48.0450 C   0  0  0  0  0  0  0  0  0  0  0  0
    1.9790   -0.4930   54.0640 C   0  0  0  0  0  0  0  0  0  0  0  0
    3.1200    6.1290   49.8980 C   0  0  0  0  0  0  0  0  0  0  0  0
    3.0430    3.6090   48.7130 C   0  0  0  0  0  0  0  0  0  0  0  0
    1.0910    0.5000   53.6950 C   0  0  0  0  0  0  0  0  0  0  0  0
    2.7360   -1.1020   53.0800 C   0  0  0  0  0  0  0  0  0  0  0  0
    2.6950    5.0380   50.6410 C   0  0  0  0  0  0  0  0  0  0  0  0
    1.8690    0.4650   51.4470 C   0  0  0  0  0  0  0  0  0  0  0  0
    2.6000    3.7800   50.0120 C   0  0  0  0  0  0  0  0  0  0  0  0
    0.8740    0.7560   52.3600 C   0  0  0  0  0  0  0  0  0  0  0  0
    2.7790   -0.5260   51.8130 C   0  0  0  0  0  0  0  0  0  0  0  0
    2.6270    5.1930   52.0680 C   0  0  0  0  0  0  0  0  0  0  0  0
    1.9840    1.3580   50.3300 C   0  0  0  0  0  0  0  0  0  0  0  0
    0.8180    6.8810   52.1840 C   0  0  0  0  0  0  0  0  0  0  0  0
    2.9600    7.1070   53.5390 C   0  0  0  0  0  0  0  0  0  0  0  0
    0.4240    8.2350   52.8130 C   0  0  0  0  0  0  0  0  0  0  0  0
    2.3430    8.3910   54.1030 C   0  0  0  0  0  0  0  0  0  0  0  0
   -0.8180    0.7170   50.6720 C   0  0  0  0  0  0  0  0  0  0  0  0
    4.7830    0.1730   50.8360 C   0  0  0  0  0  0  0  0  0  0  0  0
    2.0670    6.2970   52.6860 N   0  0  0  0  0  0  0  0  0  0  0  0
    2.1890    2.6640   50.7410 N   0  0  0  0  0  0  0  0  0  0  0  0
    3.2040    4.3790   52.7580 O   0  0  0  0  0  0  0  0  0  0  0  0
    1.7950    1.0450   49.1620 O   0  0  0  0  0  0  0  0  0  0  0  0
    1.5460    9.0370   53.1310 O   0  0  0  0  0  0  0  0  0  0  0  0
   -0.3240    1.2620   51.9320 O   0  0  0  0  0  0  0  0  0  0  0  0
    3.7970   -0.8370   51.0010 O   0  0  0  0  0  0  0  0  0  0  0  0
  1  2  2  0
  1  4  1  0
  2  5  1  0
  3  6  2  0
  3  7  1  0
  4  8  2  0
  5 10  2  0
  6 11  1  0
  7 12  2  0
  8 10  1  0
  8 13  1  0
  9 11  2  0
  9 12  1  0
  9 14  1  0
 10 22  1  0
 11 26  1  0
 12 27  1  0
 13 21  1  0
 13 23  2  0
 14 22  1  0
 14 24  2  0
 15 17  1  0
 15 21  1  0
 16 18  1  0
 16 21  1  0
 17 25  1  0
 18 25  1  0
 19 26  1  0
 20 27  1  0
M  END
>  <washed_aromatic_smiles>  (290) 
COc1cccc(c1C(=O)Nc2ccccc2C(=O)N3CCOCC3)OC

>  <name>  (290) 
neg281770

$$$$
neg183297
     RDKit          3D

 28 29  0  0  0  0  0  0  0  0999 V2000
    1.4560    0.4760   50.4110 C   0  0  0  0  0  0  0  0  0  0  0  0
    5.1700   13.2050   55.7980 C   0  0  0  0  0  0  0  0  0  0  0  0
    1.8480    1.7850   50.6870 C   0  0  0  0  0  0  0  0  0  0  0  0
    4.8360   11.9290   55.3690 C   0  0  0  0  0  0  0  0  0  0  0  0
    0.8660    0.1540   49.1900 C   0  0  0  0  0  0  0  0  0  0  0  0
    5.5210   13.4310   57.1240 C   0  0  0  0  0  0  0  0  0  0  0  0
    1.6530    2.8160   49.7470 C   0  0  0  0  0  0  0  0  0  0  0  0
    4.8080   10.8410   56.2620 C   0  0  0  0  0  0  0  0  0  0  0  0
    0.7120    1.1480   48.2310 C   0  0  0  0  0  0  0  0  0  0  0  0
    5.5350   12.3700   58.0250 C   0  0  0  0  0  0  0  0  0  0  0  0
    1.1440    2.4500   48.4930 C   0  0  0  0  0  0  0  0  0  0  0  0
    5.1430   11.0930   57.6070 C   0  0  0  0  0  0  0  0  0  0  0  0
    1.8710    4.2200   50.0740 C   0  0  0  0  0  0  0  0  0  0  0  0
    4.4640    9.5140   55.7810 C   0  0  0  0  0  0  0  0  0  0  0  0
    3.1040    6.3680   52.6030 C   0  0  0  0  0  0  0  0  0  0  0  0
    2.9280    7.7290   53.1090 C   0  0  0  0  0  0  0  0  0  0  0  0
    0.8190    0.7680   45.7980 C   0  0  0  0  0  0  0  0  0  0  0  0
    6.7090   13.7560   59.7400 C   0  0  0  0  0  0  0  0  0  0  0  0
    2.3670    4.5920   51.1840 N   0  0  0  0  0  0  0  0  0  0  0  0
    3.8370    9.3360   54.6840 N   0  0  0  0  0  0  0  0  0  0  0  0
    2.4510    5.9440   51.4580 N   0  0  0  0  0  0  0  0  0  0  0  0
    3.6300    8.0440   54.2660 N   0  0  0  0  0  0  0  0  0  0  0  0
    3.8330    5.5620   53.1660 O   0  0  0  0  0  0  0  0  0  0  0  0
    2.2040    8.5750   52.5950 O   0  0  0  0  0  0  0  0  0  0  0  0
    1.0570    3.3890   47.5190 O   0  0  0  0  0  0  0  0  0  0  0  0
    5.0780   10.0840   58.5350 O   0  0  0  0  0  0  0  0  0  0  0  0
    0.0860    0.8340   47.0390 O   0  0  0  0  0  0  0  0  0  0  0  0
    5.9570   12.5700   59.3380 O   0  0  0  0  0  0  0  0  0  0  0  0
  1  3  2  0
  1  5  1  0
  2  4  2  0
  2  6  1  0
  3  7  1  0
  4  8  1  0
  5  9  2  0
  6 10  2  0
  7 11  2  0
  7 13  1  0
  8 12  2  0
  8 14  1  0
  9 11  1  0
  9 27  1  0
 10 12  1  0
 10 28  1  0
 11 25  1  0
 12 26  1  0
 13 19  2  0
 14 20  2  0
 15 16  1  0
 15 21  1  0
 15 23  2  0
 16 22  1  0
 16 24  2  0
 17 27  1  0
 18 28  1  0
 19 21  1  0
 20 22  1  0
M  END
>  <washed_aromatic_smiles>  (291) 
COc1c(c(ccc1)/C=N/NC(=O)C(=O)N/N=C/c2c(c(ccc2)OC)O)O

>  <name>  (291) 
neg183297

$$$$
neg21410
     RDKit          3D

 29 31  0  0  0  0  0  0  0  0999 V2000
    5.1680    9.0570   55.3830 C   0  0  0  0  0  0  0  0  0  0  0  0
    3.0790    1.3080   52.8950 C   0  0  0  0  0  0  0  0  0  0  0  0
    4.1330    8.1570   55.1650 C   0  0  0  0  0  0  0  0  0  0  0  0
    2.9960    2.6800   52.7430 C   0  0  0  0  0  0  0  0  0  0  0  0
    5.2460   10.2190   54.6280 C   0  0  0  0  0  0  0  0  0  0  0  0
    2.5050    0.5030   51.9330 C   0  0  0  0  0  0  0  0  0  0  0  0
    1.8050    2.4830   50.7260 C   0  0  0  0  0  0  0  0  0  0  0  0
    3.1670    8.4020   54.1880 C   0  0  0  0  0  0  0  0  0  0  0  0
    2.4860    3.2720   51.6080 C   0  0  0  0  0  0  0  0  0  0  0  0
    4.2720   10.4880   53.6680 C   0  0  0  0  0  0  0  0  0  0  0  0
    3.2110    9.5860   53.4610 C   0  0  0  0  0  0  0  0  0  0  0  0
    1.8050    1.1020   50.8890 C   0  0  0  0  0  0  0  0  0  0  0  0
    2.9260    5.6210   52.2820 C   0  0  0  0  0  0  0  0  0  0  0  0
    0.9090    0.5680   45.9500 C   0  0  0  0  0  0  0  0  0  0  0  0
    0.7350    1.9600   46.4190 C   0  0  0  0  0  0  0  0  0  0  0  0
    0.8300   -0.1780   47.2620 C   0  0  0  0  0  0  0  0  0  0  0  0
    0.8600    1.9890   47.9070 C   0  0  0  0  0  0  0  0  0  0  0  0
    5.2570   12.7480   53.2530 C   0  0  0  0  0  0  0  0  0  0  0  0
    0.7060    9.5940   52.5370 C   0  0  0  0  0  0  0  0  0  0  0  0
    2.1070    7.3740   53.9270 C   0  0  0  0  0  0  0  0  0  0  0  0
    2.0820    6.8340   52.4770 C   0  0  0  0  0  0  0  0  0  0  0  0
    1.2200    0.6610   48.3190 N   0  0  0  0  0  0  0  0  0  0  0  0
    2.3960    4.6740   51.4440 N   0  0  0  0  0  0  0  0  0  0  0  0
    3.9600    5.4600   52.8900 O   0  0  0  0  0  0  0  0  0  0  0  0
    1.3290   -1.2360   49.9270 O   0  0  0  0  0  0  0  0  0  0  0  0
   -0.5230    0.3220   50.0940 O   0  0  0  0  0  0  0  0  0  0  0  0
    4.3230   11.6810   52.9660 O   0  0  0  0  0  0  0  0  0  0  0  0
    2.1770    9.8960   52.5670 O   0  0  0  0  0  0  0  0  0  0  0  0
    0.8550    0.0980   49.8140 S   0  0  0  0  0  0  0  0  0  0  0  0
  1  3  2  0
  1  5  1  0
  2  4  2  0
  2  6  1  0
  3  8  1  0
  4  9  1  0
  5 10  2  0
  6 12  2  0
  7  9  2  0
  7 12  1  0
  8 11  2  0
  8 20  1  0
  9 23  1  0
 10 11  1  0
 10 27  1  0
 11 28  1  0
 12 29  1  0
 13 21  1  0
 13 23  1  0
 13 24  2  0
 14 15  1  0
 14 16  1  0
 15 17  1  0
 16 22  1  0
 17 22  1  0
 18 27  1  0
 19 28  1  0
 20 21  1  0
 22 29  1  0
 25 29  2  0
 26 29  2  0
M  END
>  <washed_aromatic_smiles>  (292) 
COc1cccc(c1OC)CCC(=O)Nc2cccc(c2)S(=O)(=O)N3CCCC3

>  <name>  (292) 
neg21410

$$$$
neg8004
     RDKit          3D

 29 31  0  0  0  0  0  0  0  0999 V2000
    2.1690   -0.9870   52.5670 C   0  0  0  0  0  0  0  0  0  0  0  0
    1.7780    8.1000   52.5300 C   0  0  0  0  0  0  0  0  0  0  0  0
    3.5530    6.6470   53.2760 C   0  0  0  0  0  0  0  0  0  0  0  0
    1.1110   -0.1130   52.6170 C   0  0  0  0  0  0  0  0  0  0  0  0
    3.2190   -0.7080   51.7440 C   0  0  0  0  0  0  0  0  0  0  0  0
    2.5200    9.2030   52.9370 C   0  0  0  0  0  0  0  0  0  0  0  0
    4.2460    7.7550   53.7430 C   0  0  0  0  0  0  0  0  0  0  0  0
    2.3460    6.8350   52.6190 C   0  0  0  0  0  0  0  0  0  0  0  0
    1.1130    1.0230   51.8140 C   0  0  0  0  0  0  0  0  0  0  0  0
    3.2930    0.4820   51.0770 C   0  0  0  0  0  0  0  0  0  0  0  0
    2.2590    1.4050   51.1130 C   0  0  0  0  0  0  0  0  0  0  0  0
    3.7680    9.0430   53.5440 C   0  0  0  0  0  0  0  0  0  0  0  0
    2.3860    5.0330   50.9660 C   0  0  0  0  0  0  0  0  0  0  0  0
    5.1560    9.7020   57.9330 C   0  0  0  0  0  0  0  0  0  0  0  0
    4.9120   11.1990   57.9500 C   0  0  0  0  0  0  0  0  0  0  0  0
    4.7620    9.2650   56.5270 C   0  0  0  0  0  0  0  0  0  0  0  0
    5.0040   11.6220   56.4850 C   0  0  0  0  0  0  0  0  0  0  0  0
   -0.8650    0.7400   50.7420 C   0  0  0  0  0  0  0  0  0  0  0  0
    5.7110    0.2770   50.6370 C   0  0  0  0  0  0  0  0  0  0  0  0
    1.6520    3.8250   50.4500 C   0  0  0  0  0  0  0  0  0  0  0  0
    4.5780   10.4680   55.7030 N   0  0  0  0  0  0  0  0  0  0  0  0
    1.7490    5.7460   51.9640 N   0  0  0  0  0  0  0  0  0  0  0  0
    3.4530    5.4000   50.5110 O   0  0  0  0  0  0  0  0  0  0  0  0
    6.1920   10.0130   53.8160 O   0  0  0  0  0  0  0  0  0  0  0  0
    4.4150   11.6050   53.4390 O   0  0  0  0  0  0  0  0  0  0  0  0
   -0.0840    1.5870   51.5860 O   0  0  0  0  0  0  0  0  0  0  0  0
    4.3720    0.6450   50.3360 O   0  0  0  0  0  0  0  0  0  0  0  0
    2.4360    2.6030   50.4110 O   0  0  0  0  0  0  0  0  0  0  0  0
    4.8380   10.3930   54.0580 S   0  0  0  0  0  0  0  0  0  0  0  0
  1  4  2  0
  1  5  1  0
  2  6  2  0
  2  8  1  0
  3  7  1  0
  3  8  2  0
  4  9  1  0
  5 10  2  0
  6 12  1  0
  7 12  2  0
  8 22  1  0
  9 11  2  0
  9 26  1  0
 10 11  1  0
 10 27  1  0
 11 28  1  0
 12 29  1  0
 13 20  1  0
 13 22  1  0
 13 23  2  0
 14 15  1  0
 14 16  1  0
 15 17  1  0
 16 21  1  0
 17 21  1  0
 18 26  1  0
 19 27  1  0
 20 28  1  0
 21 29  1  0
 24 29  2  0
 25 29  2  0
M  END
>  <washed_aromatic_smiles>  (293) 
COc1cccc(c1OCC(=O)Nc2ccc(cc2)S(=O)(=O)N3CCCC3)OC

>  <name>  (293) 
neg8004

$$$$
neg122890
     RDKit          3D

 30 33  0  0  0  0  0  0  0  0999 V2000
    5.4540    9.2780   58.0470 C   0  0  0  0  0  0  0  0  0  0  0  0
    1.6260   -0.6500   50.1880 C   0  0  0  0  0  0  0  0  0  0  0  0
    5.3580   10.6020   58.4690 C   0  0  0  0  0  0  0  0  0  0  0  0
    0.6120   -0.7630   49.2590 C   0  0  0  0  0  0  0  0  0  0  0  0
    5.2600    8.9590   56.7080 C   0  0  0  0  0  0  0  0  0  0  0  0
    2.1660    0.5940   50.4470 C   0  0  0  0  0  0  0  0  0  0  0  0
    5.1270   11.6160   57.5490 C   0  0  0  0  0  0  0  0  0  0  0  0
    0.1480    0.3230   48.5690 C   0  0  0  0  0  0  0  0  0  0  0  0
    4.9190    9.9540   55.7810 C   0  0  0  0  0  0  0  0  0  0  0  0
    1.6910    1.7440   49.7690 C   0  0  0  0  0  0  0  0  0  0  0  0
    4.9460   11.2880   56.2050 C   0  0  0  0  0  0  0  0  0  0  0  0
    0.7830    1.5420   48.7080 C   0  0  0  0  0  0  0  0  0  0  0  0
    4.4690    9.6580   54.4240 C   0  0  0  0  0  0  0  0  0  0  0  0
    3.5530    6.7660   53.8500 C   0  0  0  0  0  0  0  0  0  0  0  0
    2.4560    8.0450   52.0890 C   0  0  0  0  0  0  0  0  0  0  0  0
    2.9840    7.7840   54.8240 C   0  0  0  0  0  0  0  0  0  0  0  0
    2.4060    9.2350   53.0710 C   0  0  0  0  0  0  0  0  0  0  0  0
    2.3340    4.2620   49.4470 C   0  0  0  0  0  0  0  0  0  0  0  0
    2.7780    3.0090   51.5130 C   0  0  0  0  0  0  0  0  0  0  0  0
    2.3430    5.5910   50.2690 C   0  0  0  0  0  0  0  0  0  0  0  0
    2.8500    4.3230   52.2680 C   0  0  0  0  0  0  0  0  0  0  0  0
    2.6790    6.6580   52.6170 C   0  0  0  0  0  0  0  0  0  0  0  0
    4.6760   13.6470   55.4010 C   0  0  0  0  0  0  0  0  0  0  0  0
    0.4680    1.8860   46.3440 C   0  0  0  0  0  0  0  0  0  0  0  0
    2.0490    3.0480   50.2620 N   0  0  0  0  0  0  0  0  0  0  0  0
    3.2150    9.0870   54.2780 N   0  0  0  0  0  0  0  0  0  0  0  0
    3.0910    5.5910   51.5970 N   0  0  0  0  0  0  0  0  0  0  0  0
    5.1090    9.9630   53.4200 O   0  0  0  0  0  0  0  0  0  0  0  0
    4.8040   12.2420   55.2340 O   0  0  0  0  0  0  0  0  0  0  0  0
    0.5320    2.4450   47.7120 O   0  0  0  0  0  0  0  0  0  0  0  0
  1  3  2  0
  1  5  1  0
  2  4  2  0
  2  6  1  0
  3  7  1  0
  4  8  1  0
  5  9  2  0
  6 10  2  0
  7 11  2  0
  8 12  2  0
  9 11  1  0
  9 13  1  0
 10 12  1  0
 10 25  1  0
 11 29  1  0
 12 30  1  0
 13 26  1  0
 13 28  2  0
 14 16  1  0
 14 22  1  0
 15 17  1  0
 15 22  1  0
 16 26  1  0
 17 26  1  0
 18 20  1  0
 18 25  1  0
 19 21  1  0
 19 25  1  0
 20 27  1  0
 21 27  1  0
 22 27  1  0
 23 29  1  0
 24 30  1  0
M  CHG  1  27   1
M  END
>  <washed_aromatic_smiles>  (294) 
COc1ccccc1C(=O)N2CCC(CC2)N3CCN(CC3)c4ccccc4OC

>  <name>  (294) 
neg122890

$$$$
neg267257
     RDKit          3D

 25 27  0  0  0  0  0  0  0  0999 V2000
    5.2680   12.1700   58.1910 C   0  0  0  0  0  0  0  0  0  0  0  0
    3.0810    5.6540   48.7470 C   0  0  0  0  0  0  0  0  0  0  0  0
    2.7530    4.3170   48.5450 C   0  0  0  0  0  0  0  0  0  0  0  0
    5.8590   12.8800   57.1570 C   0  0  0  0  0  0  0  0  0  0  0  0
    4.4730   11.0700   57.9050 C   0  0  0  0  0  0  0  0  0  0  0  0
    3.1400    6.1860   50.0310 C   0  0  0  0  0  0  0  0  0  0  0  0
    2.5400    3.4880   49.6320 C   0  0  0  0  0  0  0  0  0  0  0  0
    5.7120   12.4500   55.8420 C   0  0  0  0  0  0  0  0  0  0  0  0
    4.2920   10.6640   56.5870 C   0  0  0  0  0  0  0  0  0  0  0  0
    2.9380    5.3750   51.1490 C   0  0  0  0  0  0  0  0  0  0  0  0
    2.6900    4.0030   50.9200 C   0  0  0  0  0  0  0  0  0  0  0  0
    4.9490   11.3210   55.5410 C   0  0  0  0  0  0  0  0  0  0  0  0
    3.2220    5.8680   52.4960 C   0  0  0  0  0  0  0  0  0  0  0  0
    1.9740    8.0360   52.6530 C   0  0  0  0  0  0  0  0  0  0  0  0
    3.1250    7.2500   54.5390 C   0  0  0  0  0  0  0  0  0  0  0  0
    2.9720    9.2250   52.5850 C   0  0  0  0  0  0  0  0  0  0  0  0
    4.2730    8.2400   54.3850 C   0  0  0  0  0  0  0  0  0  0  0  0
    2.7920    1.6900   51.9120 C   0  0  0  0  0  0  0  0  0  0  0  0
    2.5800    6.8670   53.2290 N   0  0  0  0  0  0  0  0  0  0  0  0
    3.8000    9.4910   53.7980 N   0  0  0  0  0  0  0  0  0  0  0  0
    4.1490    5.3630   53.0740 O   0  0  0  0  0  0  0  0  0  0  0  0
    4.3140   11.8800   53.0720 O   0  0  0  0  0  0  0  0  0  0  0  0
    6.1540   10.3530   53.4230 O   0  0  0  0  0  0  0  0  0  0  0  0
    2.7140    3.1340   51.9830 O   0  0  0  0  0  0  0  0  0  0  0  0
    4.8550   10.7920   53.8160 S   0  0  0  0  0  0  0  0  0  0  0  0
  1  4  2  0
  1  5  1  0
  2  3  2  0
  2  6  1  0
  3  7  1  0
  4  8  1  0
  5  9  2  0
  6 10  2  0
  7 11  2  0
  8 12  2  0
  9 12  1  0
 10 11  1  0
 10 13  1  0
 11 24  1  0
 12 25  1  0
 13 19  1  0
 13 21  2  0
 14 16  1  0
 14 19  1  0
 15 17  1  0
 15 19  1  0
 16 20  1  0
 17 20  1  0
 18 24  1  0
 20 25  1  0
 22 25  2  0
 23 25  2  0
M  END
>  <washed_aromatic_smiles>  (295) 
COc1ccccc1C(=O)N2CCN(CC2)S(=O)(=O)c3ccccc3

>  <name>  (295) 
neg267257

$$$$
neg69004
     RDKit          3D

 26 28  0  0  0  0  0  0  0  0999 V2000
    4.4290    8.7420   56.7780 C   0  0  0  0  0  0  0  0  0  0  0  0
    1.4420    2.9140   48.2910 C   0  0  0  0  0  0  0  0  0  0  0  0
    1.6070    4.2820   48.4030 C   0  0  0  0  0  0  0  0  0  0  0  0
    4.6480   10.0610   56.3980 C   0  0  0  0  0  0  0  0  0  0  0  0
    4.1340    7.7830   55.8180 C   0  0  0  0  0  0  0  0  0  0  0  0
    1.6280    2.0950   49.3970 C   0  0  0  0  0  0  0  0  0  0  0  0
    1.9530    4.8370   49.6220 C   0  0  0  0  0  0  0  0  0  0  0  0
    4.6170   10.4000   55.0540 C   0  0  0  0  0  0  0  0  0  0  0  0
    4.0030    8.1040   54.4600 C   0  0  0  0  0  0  0  0  0  0  0  0
    1.9370    2.6280   50.6660 C   0  0  0  0  0  0  0  0  0  0  0  0
    2.0490    4.0610   50.7690 C   0  0  0  0  0  0  0  0  0  0  0  0
    4.3380    9.4200   54.0930 C   0  0  0  0  0  0  0  0  0  0  0  0
    3.5600    7.0680   53.5080 C   0  0  0  0  0  0  0  0  0  0  0  0
    1.6120    6.0920   52.2620 C   0  0  0  0  0  0  0  0  0  0  0  0
    2.6130   -0.3250   53.9950 C   0  0  0  0  0  0  0  0  0  0  0  0
    1.7290   -0.6350   52.7970 C   0  0  0  0  0  0  0  0  0  0  0  0
    2.7020    1.1770   54.1710 C   0  0  0  0  0  0  0  0  0  0  0  0
    1.9950    0.2070   51.5380 C   0  0  0  0  0  0  0  0  0  0  0  0
    3.0420    1.9170   52.8560 C   0  0  0  0  0  0  0  0  0  0  0  0
    5.5740   10.5990   52.3830 C   0  0  0  0  0  0  0  0  0  0  0  0
    2.0840    1.6730   51.7730 N   0  0  0  0  0  0  0  0  0  0  0  0
    2.2710    4.8510   51.9500 N   0  0  0  0  0  0  0  0  0  0  0  0
    2.2770    7.0910   53.0220 N   0  0  0  0  0  0  0  0  0  0  0  0
    4.2380    6.1240   53.1540 O   0  0  0  0  0  0  0  0  0  0  0  0
    4.4680    9.7410   52.7760 O   0  0  0  0  0  0  0  0  0  0  0  0
    0.0310    6.4210   51.8510 S   0  0  0  0  0  0  0  0  0  0  0  0
  1  4  2  0
  1  5  1  0
  2  3  2  0
  2  6  1  0
  3  7  1  0
  4  8  1  0
  5  9  2  0
  6 10  2  0
  7 11  2  0
  8 12  2  0
  9 12  1  0
  9 13  1  0
 10 11  1  0
 10 21  1  0
 11 22  1  0
 12 25  1  0
 13 23  1  0
 13 24  2  0
 14 22  1  0
 14 23  1  0
 14 26  2  0
 15 16  1  0
 15 17  1  0
 16 18  1  0
 17 19  1  0
 18 21  1  0
 19 21  1  0
 20 25  1  0
M  END
>  <washed_aromatic_smiles>  (296) 
COc1ccccc1C(=O)NC(=S)Nc2ccccc2N3CCCCC3

>  <name>  (296) 
neg69004

$$$$
neg99918
     RDKit          3D

 26 29  0  0  1  0  0  0  0  0999 V2000
    2.9710    3.7880   47.8320 C   0  0  0  0  0  0  0  0  0  0  0  0
    5.5870   11.8950   58.8850 C   0  0  0  0  0  0  0  0  0  0  0  0
    1.6190    3.8930   48.0770 C   0  0  0  0  0  0  0  0  0  0  0  0
    3.8740    4.4800   48.6040 C   0  0  0  0  0  0  0  0  0  0  0  0
    5.7110   13.1480   58.2980 C   0  0  0  0  0  0  0  0  0  0  0  0
    5.1720   10.8050   58.1330 C   0  0  0  0  0  0  0  0  0  0  0  0
    1.2060    4.7170   49.1050 C   0  0  0  0  0  0  0  0  0  0  0  0
    3.4610    5.2890   49.6470 C   0  0  0  0  0  0  0  0  0  0  0  0
    5.3820   13.3130   56.9630 C   0  0  0  0  0  0  0  0  0  0  0  0
    4.8810   10.9400   56.7680 C   0  0  0  0  0  0  0  0  0  0  0  0
    2.1060    5.3980   49.9040 C   0  0  0  0  0  0  0  0  0  0  0  0
    5.0180   12.2220   56.1890 C   0  0  0  0  0  0  0  0  0  0  0  0
    4.4030    9.7690   56.0450 C   0  0  0  0  0  0  0  0  0  0  0  0
    2.6960    6.3410   53.4690 C   0  0  0  0  0  0  0  0  0  0  0  0
    1.2120    6.8390   53.6460 C   0  0  0  0  0  0  0  0  0  0  0  0
    3.9070    8.3900   53.1330 C   0  0  0  0  0  0  0  0  0  0  0  0
    1.6780    9.2040   53.3790 C   0  0  0  0  0  0  0  0  0  0  0  0
    3.2620    7.1730   52.4290 C   0  0  2  0  0  0  0  0  0  0  0  0
    1.1700    7.9550   52.6480 C   0  0  1  0  0  0  0  0  0  0  0  0
    2.9870    8.9510   54.1770 C   0  0  2  0  0  0  0  0  0  0  0  0
    5.6310   11.9820   53.8050 C   0  0  0  0  0  0  0  0  0  0  0  0
    1.4570    6.1980   50.9890 C   0  0  0  0  0  0  0  0  0  0  0  0
    2.0970    7.4350   51.6370 N   0  0  2  0  0  0  0  0  0  0  0  0
    3.6730    9.9720   54.9070 N   0  0  0  0  0  0  0  0  0  0  0  0
    4.5950    8.6150   56.4320 O   0  0  0  0  0  0  0  0  0  0  0  0
    4.7830   12.4980   54.8610 O   0  0  0  0  0  0  0  0  0  0  0  0
  1  3  2  0
  1  4  1  0
  2  5  2  0
  2  6  1  0
  3  7  1  0
  4  8  2  0
  5  9  1  0
  6 10  2  0
  7 11  2  0
  8 11  1  0
  9 12  2  0
 10 12  1  0
 10 13  1  0
 11 22  1  0
 12 26  1  0
 13 24  1  0
 13 25  2  0
 14 15  1  0
 18 14  1  1
 19 15  1  1
 16 18  1  0
 16 20  1  0
 17 19  1  0
 17 20  1  0
 18 23  1  0
 19 23  1  0
 20 24  1  6
 21 26  1  0
 23 22  1  1
M  CHG  1  23   1
M  END
>  <washed_aromatic_smiles>  (297) 
COc1ccccc1C(=O)NC2CC3CCC(C2)N3Cc4ccccc4

>  <name>  (297) 
neg99918

$$$$
neg23063
     RDKit          3D

 27 28  0  0  0  0  0  0  0  0999 V2000
    4.0080   10.5040   57.4520 C   0  0  0  0  0  0  0  0  0  0  0  0
    4.9920   11.3050   56.8800 C   0  0  0  0  0  0  0  0  0  0  0  0
    1.1670   -0.9320   47.7900 C   0  0  0  0  0  0  0  0  0  0  0  0
    1.0250   -0.0110   46.7570 C   0  0  0  0  0  0  0  0  0  0  0  0
    3.2890    9.6080   56.6690 C   0  0  0  0  0  0  0  0  0  0  0  0
    5.2740   11.2000   55.5250 C   0  0  0  0  0  0  0  0  0  0  0  0
    1.0200   -0.5650   49.1250 C   0  0  0  0  0  0  0  0  0  0  0  0
    0.7500    1.3050   47.0480 C   0  0  0  0  0  0  0  0  0  0  0  0
    3.5500    9.4810   55.2970 C   0  0  0  0  0  0  0  0  0  0  0  0
    4.5690   10.2820   54.7400 C   0  0  0  0  0  0  0  0  0  0  0  0
    0.8270    0.7770   49.4240 C   0  0  0  0  0  0  0  0  0  0  0  0
    0.7520    1.6930   48.3770 C   0  0  0  0  0  0  0  0  0  0  0  0
    2.7270    8.5760   54.4930 C   0  0  0  0  0  0  0  0  0  0  0  0
    3.1330    5.5740   50.5550 C   0  0  0  0  0  0  0  0  0  0  0  0
    5.9200   10.8380   52.6920 C   0  0  0  0  0  0  0  0  0  0  0  0
    0.6440    0.4080   51.8890 C   0  0  0  0  0  0  0  0  0  0  0  0
    3.0420    5.8240   52.0540 C   0  0  0  0  0  0  0  0  0  0  0  0
    2.6380    7.2640   52.3690 C   0  0  0  0  0  0  0  0  0  0  0  0
    2.0010    5.0210   48.4910 C   0  0  0  0  0  0  0  0  0  0  0  0
    2.0740    3.5570   48.2370 C   0  0  0  0  0  0  0  0  0  0  0  0
    3.3330    7.8020   53.5380 N   0  0  0  0  0  0  0  0  0  0  0  0
    2.0100    5.2470   49.9250 N   0  0  0  0  0  0  0  0  0  0  0  0
    1.5130    8.4700   54.6510 O   0  0  0  0  0  0  0  0  0  0  0  0
    4.2010    5.6660   49.9580 O   0  0  0  0  0  0  0  0  0  0  0  0
    4.8460   10.1780   53.3940 O   0  0  0  0  0  0  0  0  0  0  0  0
    0.7660    1.2480   50.7250 O   0  0  0  0  0  0  0  0  0  0  0  0
    0.8320    2.9930   48.6320 O   0  0  0  0  0  0  0  0  0  0  0  0
  1  2  2  0
  1  5  1  0
  2  6  1  0
  3  4  2  0
  3  7  1  0
  4  8  1  0
  5  9  2  0
  6 10  2  0
  7 11  2  0
  8 12  2  0
  9 10  1  0
  9 13  1  0
 10 25  1  0
 11 12  1  0
 11 26  1  0
 12 27  1  0
 13 21  1  0
 13 23  2  0
 14 17  1  0
 14 22  1  0
 14 24  2  0
 15 25  1  0
 16 26  1  0
 17 18  1  0
 18 21  1  0
 19 20  1  0
 19 22  1  0
 20 27  1  0
M  END
>  <washed_aromatic_smiles>  (298) 
COc1ccccc1C(=O)NCCC(=O)NCCOc2ccccc2OC

>  <name>  (298) 
neg23063

$$$$
neg28510
     RDKit          3D

 26 27  0  0  0  0  0  0  0  0999 V2000
    0.6230    2.0510   47.5810 C   0  0  0  0  0  0  0  0  0  0  0  0
    4.5480   11.1380   57.8280 C   0  0  0  0  0  0  0  0  0  0  0  0
    0.2360    0.7260   47.7080 C   0  0  0  0  0  0  0  0  0  0  0  0
    5.3500   12.2140   57.4570 C   0  0  0  0  0  0  0  0  0  0  0  0
    1.3510    2.6690   48.5860 C   0  0  0  0  0  0  0  0  0  0  0  0
    4.0680   10.2600   56.8650 C   0  0  0  0  0  0  0  0  0  0  0  0
    0.5790    0.0030   48.8400 C   0  0  0  0  0  0  0  0  0  0  0  0
    5.6930   12.3960   56.1240 C   0  0  0  0  0  0  0  0  0  0  0  0
    1.6850    1.9800   49.7690 C   0  0  0  0  0  0  0  0  0  0  0  0
    4.3870   10.4270   55.5060 C   0  0  0  0  0  0  0  0  0  0  0  0
    1.2940    0.6250   49.8600 C   0  0  0  0  0  0  0  0  0  0  0  0
    5.2420   11.5000   55.1580 C   0  0  0  0  0  0  0  0  0  0  0  0
    3.7920    9.5370   54.5090 C   0  0  0  0  0  0  0  0  0  0  0  0
    2.3460    2.6910   50.8700 C   0  0  0  0  0  0  0  0  0  0  0  0
    2.6020    6.2590   51.7130 C   0  0  0  0  0  0  0  0  0  0  0  0
    6.2480   10.7670   52.9620 C   0  0  0  0  0  0  0  0  0  0  0  0
    2.2920    7.1500   52.8940 C   0  0  0  0  0  0  0  0  0  0  0  0
    3.4420    7.1740   53.9110 C   0  0  0  0  0  0  0  0  0  0  0  0
    3.4400    8.2630   54.8810 N   0  0  0  0  0  0  0  0  0  0  0  0
    2.4840    4.0430   50.7450 N   0  0  0  0  0  0  0  0  0  0  0  0
    2.5100    4.9200   51.8960 N   0  0  0  0  0  0  0  0  0  0  0  0
    3.5690    9.8780   53.3550 O   0  0  0  0  0  0  0  0  0  0  0  0
    2.7430    2.1740   51.9190 O   0  0  0  0  0  0  0  0  0  0  0  0
    2.9460    6.6910   50.6240 O   0  0  0  0  0  0  0  0  0  0  0  0
    1.5850   -0.1360   50.9540 O   0  0  0  0  0  0  0  0  0  0  0  0
    5.6920   11.7530   53.8740 O   0  0  0  0  0  0  0  0  0  0  0  0
  1  3  2  0
  1  5  1  0
  2  4  2  0
  2  6  1  0
  3  7  1  0
  4  8  1  0
  5  9  2  0
  6 10  2  0
  7 11  2  0
  8 12  2  0
  9 11  1  0
  9 14  1  0
 10 12  1  0
 10 13  1  0
 11 25  1  0
 12 26  1  0
 13 19  1  0
 13 22  2  0
 14 20  1  0
 14 23  2  0
 15 17  1  0
 15 21  1  0
 15 24  2  0
 16 26  1  0
 17 18  1  0
 18 19  1  0
 20 21  1  0
M  END
>  <washed_aromatic_smiles>  (299) 
COc1ccccc1C(=O)NCCC(=O)NNC(=O)c2ccccc2O

>  <name>  (299) 
neg28510

$$$$
neg84878
     RDKit          3D

 27 28  0  0  0  0  0  0  0  0999 V2000
    4.8560   10.6950   58.2060 C   0  0  0  0  0  0  0  0  0  0  0  0
    5.3000   11.9730   57.8710 C   0  0  0  0  0  0  0  0  0  0  0  0
    4.4110    9.8250   57.2170 C   0  0  0  0  0  0  0  0  0  0  0  0
    1.8110    4.3410   49.1340 C   0  0  0  0  0  0  0  0  0  0  0  0
    2.5120    3.4760   51.2960 C   0  0  0  0  0  0  0  0  0  0  0  0
    5.3000   12.3900   56.5460 C   0  0  0  0  0  0  0  0  0  0  0  0
    1.4660    3.0540   48.7340 C   0  0  0  0  0  0  0  0  0  0  0  0
    2.1780    2.1940   50.8950 C   0  0  0  0  0  0  0  0  0  0  0  0
    4.4120   10.2200   55.8750 C   0  0  0  0  0  0  0  0  0  0  0  0
    2.3150    4.5430   50.4200 C   0  0  0  0  0  0  0  0  0  0  0  0
    1.6460    1.9870   49.6250 C   0  0  0  0  0  0  0  0  0  0  0  0
    4.8490   11.5150   55.5560 C   0  0  0  0  0  0  0  0  0  0  0  0
    3.9930    9.3080   54.8240 C   0  0  0  0  0  0  0  0  0  0  0  0
    1.9300    6.4460   51.8870 C   0  0  0  0  0  0  0  0  0  0  0  0
    5.3560   13.0420   53.6130 C   0  0  0  0  0  0  0  0  0  0  0  0
    2.7000    7.4660   52.6910 C   0  0  0  0  0  0  0  0  0  0  0  0
    1.9180    8.1460   53.8270 C   0  0  0  0  0  0  0  0  0  0  0  0
    0.6040    0.0260   48.2800 C   0  0  0  0  0  0  0  0  0  0  0  0
    2.6380    5.8320   50.8870 N   0  0  0  0  0  0  0  0  0  0  0  0
    2.7040    8.8170   54.8880 N   0  0  0  0  0  0  0  0  0  0  0  0
    4.7490    8.9930   53.9120 O   0  0  0  0  0  0  0  0  0  0  0  0
    0.7890    6.0980   52.1430 O   0  0  0  0  0  0  0  0  0  0  0  0
    4.7820   11.8930   54.2370 O   0  0  0  0  0  0  0  0  0  0  0  0
    1.3260    0.6840   49.3310 O   0  0  0  0  0  0  0  0  0  0  0  0
    0.6880    0.6520   47.1050 F   0  0  0  0  0  0  0  0  0  0  0  0
   -0.6810   -0.1050   48.5840 F   0  0  0  0  0  0  0  0  0  0  0  0
    1.0940   -1.1860   48.1080 F   0  0  0  0  0  0  0  0  0  0  0  0
  1  2  2  0
  1  3  1  0
  2  6  1  0
  3  9  2  0
  4  7  2  0
  4 10  1  0
  5  8  1  0
  5 10  2  0
  6 12  2  0
  7 11  1  0
  8 11  2  0
  9 12  1  0
  9 13  1  0
 10 19  1  0
 11 24  1  0
 12 23  1  0
 13 20  1  0
 13 21  2  0
 14 16  1  0
 14 19  1  0
 14 22  2  0
 15 23  1  0
 16 17  1  0
 17 20  1  0
 18 24  1  0
 18 25  1  0
 18 26  1  0
 18 27  1  0
M  END
>  <washed_aromatic_smiles>  (300) 
COc1ccccc1C(=O)NCCC(=O)Nc2ccc(cc2)OC(F)(F)F

>  <name>  (300) 
neg84878

$$$$
neg323724
     RDKit          3D

 27 29  0  0  0  0  0  0  0  0999 V2000
    4.1720   10.7400   57.5760 C   0  0  0  0  0  0  0  0  0  0  0  0
    5.1410   11.5450   56.9830 C   0  0  0  0  0  0  0  0  0  0  0  0
    3.4210    9.8640   56.8010 C   0  0  0  0  0  0  0  0  0  0  0  0
    0.9680    6.2040   51.3950 C   0  0  0  0  0  0  0  0  0  0  0  0
    2.8430    4.9230   52.1940 C   0  0  0  0  0  0  0  0  0  0  0  0
    1.3890    7.2930   52.1550 C   0  0  0  0  0  0  0  0  0  0  0  0
    3.3300    6.0360   52.8430 C   0  0  0  0  0  0  0  0  0  0  0  0
    5.3770   11.4590   55.6180 C   0  0  0  0  0  0  0  0  0  0  0  0
    3.6230    9.7630   55.4160 C   0  0  0  0  0  0  0  0  0  0  0  0
    1.7340    5.0290   51.3690 C   0  0  0  0  0  0  0  0  0  0  0  0
    2.6110    7.2200   52.8210 C   0  0  0  0  0  0  0  0  0  0  0  0
    4.6370   10.5630   54.8400 C   0  0  0  0  0  0  0  0  0  0  0  0
    2.7410    8.8800   54.6430 C   0  0  0  0  0  0  0  0  0  0  0  0
    1.6870    2.5430   50.8120 C   0  0  0  0  0  0  0  0  0  0  0  0
    1.5200    4.4170   49.0520 C   0  0  0  0  0  0  0  0  0  0  0  0
    2.0960    1.6510   49.6410 C   0  0  0  0  0  0  0  0  0  0  0  0
    1.5660    3.3120   47.9780 C   0  0  0  0  0  0  0  0  0  0  0  0
    6.0320   10.9860   52.7840 C   0  0  0  0  0  0  0  0  0  0  0  0
   -0.4180   -0.0980   48.8490 C   0  0  0  0  0  0  0  0  0  0  0  0
    1.4560    3.9810   50.4650 N   0  0  0  0  0  0  0  0  0  0  0  0
    1.2930    1.9670   48.4840 N   0  0  0  0  0  0  0  0  0  0  0  0
    3.1980    8.3250   53.4730 N   0  0  0  0  0  0  0  0  0  0  0  0
    1.6080    8.5850   55.0070 O   0  0  0  0  0  0  0  0  0  0  0  0
    1.3270   -0.0690   46.9540 O   0  0  0  0  0  0  0  0  0  0  0  0
   -0.4930    1.5000   46.7950 O   0  0  0  0  0  0  0  0  0  0  0  0
    4.8760   10.4890   53.4860 O   0  0  0  0  0  0  0  0  0  0  0  0
    0.4500    0.8330   47.6140 S   0  0  0  0  0  0  0  0  0  0  0  0
  1  2  2  0
  1  3  1  0
  2  8  1  0
  3  9  2  0
  4  6  2  0
  4 10  1  0
  5  7  1  0
  5 10  2  0
  6 11  1  0
  7 11  2  0
  8 12  2  0
  9 12  1  0
  9 13  1  0
 10 20  1  0
 11 22  1  0
 12 26  1  0
 13 22  1  0
 13 23  2  0
 14 16  1  0
 14 20  1  0
 15 17  1  0
 15 20  1  0
 16 21  1  0
 17 21  1  0
 18 26  1  0
 19 27  1  0
 21 27  1  0
 24 27  2  0
 25 27  2  0
M  END
>  <washed_aromatic_smiles>  (301) 
COc1ccccc1C(=O)Nc2ccc(cc2)N3CCN(CC3)S(=O)(=O)C

>  <name>  (301) 
neg323724

$$$$
neg285525
     RDKit          3D

 26 28  0  0  0  0  0  0  0  0999 V2000
    3.6220    9.8910   57.0580 C   0  0  0  0  0  0  0  0  0  0  0  0
    4.7460   10.6310   56.7070 C   0  0  0  0  0  0  0  0  0  0  0  0
    2.8560    9.2650   56.0820 C   0  0  0  0  0  0  0  0  0  0  0  0
    0.7670    6.4710   51.8690 C   0  0  0  0  0  0  0  0  0  0  0  0
    3.1250    6.1500   52.2590 C   0  0  0  0  0  0  0  0  0  0  0  0
    5.1240   10.7270   55.3760 C   0  0  0  0  0  0  0  0  0  0  0  0
    0.8730    5.6680   50.7310 C   0  0  0  0  0  0  0  0  0  0  0  0
    3.1970    5.4010   51.0960 C   0  0  0  0  0  0  0  0  0  0  0  0
    3.2150    9.3460   54.7300 C   0  0  0  0  0  0  0  0  0  0  0  0
    1.9040    6.6790   52.6490 C   0  0  0  0  0  0  0  0  0  0  0  0
    4.3830   10.0610   54.3980 C   0  0  0  0  0  0  0  0  0  0  0  0
    2.0620    5.0350   50.3920 C   0  0  0  0  0  0  0  0  0  0  0  0
    2.3580    8.7840   53.6910 C   0  0  0  0  0  0  0  0  0  0  0  0
    2.7940    1.9890   51.0710 C   0  0  0  0  0  0  0  0  0  0  0  0
    0.8150    1.5390   49.8390 C   0  0  0  0  0  0  0  0  0  0  0  0
    3.0360    0.4790   51.2410 C   0  0  0  0  0  0  0  0  0  0  0  0
    1.0430    0.0310   50.0160 C   0  0  0  0  0  0  0  0  0  0  0  0
    5.9540   10.7870   52.5870 C   0  0  0  0  0  0  0  0  0  0  0  0
    2.0650    2.3030   49.8400 N   0  0  0  0  0  0  0  0  0  0  0  0
    1.9120    7.4840   53.8050 N   0  0  0  0  0  0  0  0  0  0  0  0
    2.0240    9.4090   52.6960 O   0  0  0  0  0  0  0  0  0  0  0  0
    1.1450    3.9760   48.1530 O   0  0  0  0  0  0  0  0  0  0  0  0
    3.5200    3.9300   48.5210 O   0  0  0  0  0  0  0  0  0  0  0  0
    1.8170   -0.2530   51.1800 O   0  0  0  0  0  0  0  0  0  0  0  0
    4.7840   10.1020   53.0820 O   0  0  0  0  0  0  0  0  0  0  0  0
    2.2140    3.8090   49.0730 S   0  0  0  0  0  0  0  0  0  0  0  0
  1  2  2  0
  1  3  1  0
  2  6  1  0
  3  9  2  0
  4  7  2  0
  4 10  1  0
  5  8  1  0
  5 10  2  0
  6 11  2  0
  7 12  1  0
  8 12  2  0
  9 11  1  0
  9 13  1  0
 10 20  1  0
 11 25  1  0
 12 26  1  0
 13 20  1  0
 13 21  2  0
 14 16  1  0
 14 19  1  0
 15 17  1  0
 15 19  1  0
 16 24  1  0
 17 24  1  0
 18 25  1  0
 19 26  1  0
 22 26  2  0
 23 26  2  0
M  END
>  <washed_aromatic_smiles>  (302) 
COc1ccccc1C(=O)Nc2ccc(cc2)S(=O)(=O)N3CCOCC3

>  <name>  (302) 
neg285525

$$$$
neg97268
     RDKit          3D

 28 30  0  0  0  0  0  0  0  0999 V2000
    4.0840    7.9140   56.2330 C   0  0  0  0  0  0  0  0  0  0  0  0
   -0.7280    0.5730   50.4430 C   0  0  0  0  0  0  0  0  0  0  0  0
    2.7440    5.2290   48.8350 C   0  0  0  0  0  0  0  0  0  0  0  0
    4.5280    9.2270   56.1610 C   0  0  0  0  0  0  0  0  0  0  0  0
   -0.1550   -0.1550   49.4070 C   0  0  0  0  0  0  0  0  0  0  0  0
    2.3850    3.8910   48.7720 C   0  0  0  0  0  0  0  0  0  0  0  0
    3.6510    7.2660   55.0810 C   0  0  0  0  0  0  0  0  0  0  0  0
    0.0230    0.9510   51.5390 C   0  0  0  0  0  0  0  0  0  0  0  0
    3.0290    5.8250   50.0540 C   0  0  0  0  0  0  0  0  0  0  0  0
    4.5910    9.8570   54.9280 C   0  0  0  0  0  0  0  0  0  0  0  0
    1.1310   -0.6440   49.5490 C   0  0  0  0  0  0  0  0  0  0  0  0
    2.3690    3.1220   49.9270 C   0  0  0  0  0  0  0  0  0  0  0  0
    3.6340    7.8770   53.8400 C   0  0  0  0  0  0  0  0  0  0  0  0
    1.3570    0.5720   51.6440 C   0  0  0  0  0  0  0  0  0  0  0  0
    2.9790    5.0830   51.2340 C   0  0  0  0  0  0  0  0  0  0  0  0
    4.1970    9.1680   53.7720 C   0  0  0  0  0  0  0  0  0  0  0  0
    1.8750   -0.3010   50.6780 C   0  0  0  0  0  0  0  0  0  0  0  0
    2.7130    3.6810   51.1640 C   0  0  0  0  0  0  0  0  0  0  0  0
    2.9870    7.1460   52.7370 C   0  0  0  0  0  0  0  0  0  0  0  0
    2.1720    1.0920   52.7170 C   0  0  0  0  0  0  0  0  0  0  0  0
    5.5940   10.6090   52.3820 C   0  0  0  0  0  0  0  0  0  0  0  0
    4.2870   -0.0060   50.9090 C   0  0  0  0  0  0  0  0  0  0  0  0
    3.2990    5.7880   52.4670 N   0  0  0  0  0  0  0  0  0  0  0  0
    2.0840    7.6550   52.0950 O   0  0  0  0  0  0  0  0  0  0  0  0
    2.3130    0.4640   53.7640 O   0  0  0  0  0  0  0  0  0  0  0  0
    4.4370    9.7450   52.5640 O   0  0  0  0  0  0  0  0  0  0  0  0
    3.1200   -0.8360   50.8190 O   0  0  0  0  0  0  0  0  0  0  0  0
    3.0120    2.6160   52.5520 S   0  0  0  0  0  0  0  0  0  0  0  0
  1  4  2  0
  1  7  1  0
  2  5  2  0
  2  8  1  0
  3  6  2  0
  3  9  1  0
  4 10  1  0
  5 11  1  0
  6 12  1  0
  7 13  2  0
  8 14  2  0
  9 15  2  0
 10 16  2  0
 11 17  2  0
 12 18  2  0
 13 16  1  0
 13 19  1  0
 14 17  1  0
 14 20  1  0
 15 18  1  0
 15 23  1  0
 16 26  1  0
 17 27  1  0
 18 28  1  0
 19 23  1  0
 19 24  2  0
 20 25  2  0
 20 28  1  0
 21 26  1  0
 22 27  1  0
M  END
>  <washed_aromatic_smiles>  (303) 
COc1ccccc1C(=O)Nc2ccccc2SC(=O)c3ccccc3OC

>  <name>  (303) 
neg97268

$$$$
neg303467
     RDKit          3D

 25 26  0  0  0  0  0  0  0  0999 V2000
    0.7060    2.0110   47.5330 C   0  0  0  0  0  0  0  0  0  0  0  0
    0.1300    0.7590   47.6920 C   0  0  0  0  0  0  0  0  0  0  0  0
    1.5430    2.5280   48.5100 C   0  0  0  0  0  0  0  0  0  0  0  0
    1.9850    8.4080   52.6980 C   0  0  0  0  0  0  0  0  0  0  0  0
    3.4170    7.2760   54.2710 C   0  0  0  0  0  0  0  0  0  0  0  0
    0.3830    0.0150   48.8330 C   0  0  0  0  0  0  0  0  0  0  0  0
    2.6360    9.5900   52.9690 C   0  0  0  0  0  0  0  0  0  0  0  0
    4.0620    8.4700   54.5700 C   0  0  0  0  0  0  0  0  0  0  0  0
    1.7720    1.8250   49.7030 C   0  0  0  0  0  0  0  0  0  0  0  0
    2.5010    7.2390   53.2270 C   0  0  0  0  0  0  0  0  0  0  0  0
    3.7120    9.6150   53.8490 C   0  0  0  0  0  0  0  0  0  0  0  0
    1.1790    0.5550   49.8400 C   0  0  0  0  0  0  0  0  0  0  0  0
    2.6130    2.3800   50.7570 C   0  0  0  0  0  0  0  0  0  0  0  0
    1.3160    5.7380   51.6600 C   0  0  0  0  0  0  0  0  0  0  0  0
    0.7440    0.2190   52.2090 C   0  0  0  0  0  0  0  0  0  0  0  0
    1.7360    4.7760   50.5820 C   0  0  0  0  0  0  0  0  0  0  0  0
    5.5100   11.0810   54.7640 C   0  0  0  0  0  0  0  0  0  0  0  0
    2.2970    6.0210   52.5630 N   0  0  0  0  0  0  0  0  0  0  0  0
    3.3970    1.7150   51.4130 O   0  0  0  0  0  0  0  0  0  0  0  0
    0.2050    6.2280   51.7460 O   0  0  0  0  0  0  0  0  0  0  0  0
    1.3540   -0.2010   50.9650 O   0  0  0  0  0  0  0  0  0  0  0  0
    4.3790   10.8150   53.9500 O   0  0  0  0  0  0  0  0  0  0  0  0
    2.5510    3.6850   51.1010 O   0  0  0  0  0  0  0  0  0  0  0  0
    5.9450   12.3330   54.5500 F   0  0  0  0  0  0  0  0  0  0  0  0
    5.1950   10.9970   56.0710 F   0  0  0  0  0  0  0  0  0  0  0  0
  1  2  2  0
  1  3  1  0
  2  6  1  0
  3  9  2  0
  4  7  2  0
  4 10  1  0
  5  8  1  0
  5 10  2  0
  6 12  2  0
  7 11  1  0
  8 11  2  0
  9 12  1  0
  9 13  1  0
 10 18  1  0
 11 22  1  0
 12 21  1  0
 13 19  2  0
 13 23  1  0
 14 16  1  0
 14 18  1  0
 14 20  2  0
 15 21  1  0
 16 23  1  0
 17 22  1  0
 17 24  1  0
 17 25  1  0
M  END
>  <washed_aromatic_smiles>  (304) 
COc1ccccc1C(=O)OCC(=O)Nc2ccc(cc2)OC(F)F

>  <name>  (304) 
neg303467

$$$$
neg43317
     RDKit          3D

 27 29  0  0  0  0  0  0  0  0999 V2000
    4.5230   10.3470   57.9880 C   0  0  0  0  0  0  0  0  0  0  0  0
    5.2800   11.4530   57.6200 C   0  0  0  0  0  0  0  0  0  0  0  0
    2.8210    5.2400   49.0670 C   0  0  0  0  0  0  0  0  0  0  0  0
    3.8380    9.6100   57.0240 C   0  0  0  0  0  0  0  0  0  0  0  0
    3.0420    6.0150   50.2000 C   0  0  0  0  0  0  0  0  0  0  0  0
    5.3920   11.8040   56.2820 C   0  0  0  0  0  0  0  0  0  0  0  0
    2.5860    3.8710   49.1790 C   0  0  0  0  0  0  0  0  0  0  0  0
    2.7590    4.0440   51.5650 C   0  0  0  0  0  0  0  0  0  0  0  0
    3.9130    9.9610   55.6780 C   0  0  0  0  0  0  0  0  0  0  0  0
    3.0270    5.3970   51.4450 C   0  0  0  0  0  0  0  0  0  0  0  0
    4.7160   11.0530   55.3170 C   0  0  0  0  0  0  0  0  0  0  0  0
    2.5740    3.2560   50.4340 C   0  0  0  0  0  0  0  0  0  0  0  0
    2.8090    7.1680   53.1560 C   0  0  0  0  0  0  0  0  0  0  0  0
    1.4840   -0.7560   53.3840 C   0  0  0  0  0  0  0  0  0  0  0  0
    2.6080   -0.0280   54.0820 C   0  0  0  0  0  0  0  0  0  0  0  0
    0.8570    0.2380   52.4210 C   0  0  0  0  0  0  0  0  0  0  0  0
    2.8500    1.2100   53.2340 C   0  0  0  0  0  0  0  0  0  0  0  0
    5.1670   12.7110   53.5140 C   0  0  0  0  0  0  0  0  0  0  0  0
    3.0670    9.2070   54.6560 C   0  0  0  0  0  0  0  0  0  0  0  0
    3.5800    7.8180   54.2890 C   0  0  0  0  0  0  0  0  0  0  0  0
    1.8610    1.2250   52.1370 N   0  0  0  0  0  0  0  0  0  0  0  0
    3.4170    6.0750   52.6130 N   0  0  0  0  0  0  0  0  0  0  0  0
    1.7200    7.5380   52.7560 O   0  0  0  0  0  0  0  0  0  0  0  0
    1.2980    1.1150   49.6710 O   0  0  0  0  0  0  0  0  0  0  0  0
    3.5930    0.8380   50.3930 O   0  0  0  0  0  0  0  0  0  0  0  0
    4.8080   11.3980   53.9840 O   0  0  0  0  0  0  0  0  0  0  0  0
    2.3400    1.4820   50.5750 S   0  0  0  0  0  0  0  0  0  0  0  0
  1  2  2  0
  1  4  1  0
  2  6  1  0
  3  5  2  0
  3  7  1  0
  4  9  2  0
  5 10  1  0
  6 11  2  0
  7 12  2  0
  8 10  2  0
  8 12  1  0
  9 11  1  0
  9 19  1  0
 10 22  1  0
 11 26  1  0
 12 27  1  0
 13 20  1  0
 13 22  1  0
 13 23  2  0
 14 15  1  0
 14 16  1  0
 15 17  1  0
 16 21  1  0
 17 21  1  0
 18 26  1  0
 19 20  1  0
 21 27  1  0
 24 27  2  0
 25 27  2  0
M  END
>  <washed_aromatic_smiles>  (305) 
COc1ccccc1CCC(=O)Nc2cccc(c2)S(=O)(=O)N3CCCC3

>  <name>  (305) 
neg43317

$$$$
neg182666
     RDKit          3D

 27 29  0  0  0  0  0  0  0  0999 V2000
    5.6990   12.6000   56.6600 C   0  0  0  0  0  0  0  0  0  0  0  0
    5.6440   12.2760   55.3080 C   0  0  0  0  0  0  0  0  0  0  0  0
    5.0820   11.7790   57.5970 C   0  0  0  0  0  0  0  0  0  0  0  0
    2.7440    0.3730   52.5490 C   0  0  0  0  0  0  0  0  0  0  0  0
    1.4610   -0.1460   52.6770 C   0  0  0  0  0  0  0  0  0  0  0  0
    0.5740    7.8600   52.4440 C   0  0  0  0  0  0  0  0  0  0  0  0
    4.9630   11.1390   54.8890 C   0  0  0  0  0  0  0  0  0  0  0  0
    4.3870   10.6510   57.1830 C   0  0  0  0  0  0  0  0  0  0  0  0
    0.8500    6.6330   51.8540 C   0  0  0  0  0  0  0  0  0  0  0  0
    3.0300    1.2900   51.5390 C   0  0  0  0  0  0  0  0  0  0  0  0
    1.5170    8.4880   53.2390 C   0  0  0  0  0  0  0  0  0  0  0  0
    0.4910    0.1910   51.7440 C   0  0  0  0  0  0  0  0  0  0  0  0
    3.0500    6.6610   52.8540 C   0  0  0  0  0  0  0  0  0  0  0  0
    4.3040   10.3250   55.8220 C   0  0  0  0  0  0  0  0  0  0  0  0
    2.0850    6.0150   52.0700 C   0  0  0  0  0  0  0  0  0  0  0  0
    2.0360    1.7080   50.6510 C   0  0  0  0  0  0  0  0  0  0  0  0
    2.7610    7.8920   53.4340 C   0  0  0  0  0  0  0  0  0  0  0  0
    0.8180    1.0340   50.6930 C   0  0  0  0  0  0  0  0  0  0  0  0
    3.4710    9.2040   55.3970 C   0  0  0  0  0  0  0  0  0  0  0  0
    2.3490    4.6710   51.5870 C   0  0  0  0  0  0  0  0  0  0  0  0
    0.1790    0.2560   48.5340 C   0  0  0  0  0  0  0  0  0  0  0  0
    2.2130    2.9200   49.7330 C   0  0  0  0  0  0  0  0  0  0  0  0
    3.7440    8.5650   54.1990 N   0  0  0  0  0  0  0  0  0  0  0  0
    1.9150    4.2430   50.3460 N   0  0  0  0  0  0  0  0  0  0  0  0
    2.5110    8.8230   56.0560 O   0  0  0  0  0  0  0  0  0  0  0  0
    2.9340    3.8930   52.3130 O   0  0  0  0  0  0  0  0  0  0  0  0
   -0.0610    1.1320   49.6630 O   0  0  0  0  0  0  0  0  0  0  0  0
  1  2  2  0
  1  3  1  0
  2  7  1  0
  3  8  2  0
  4  5  2  0
  4 10  1  0
  5 12  1  0
  6  9  2  0
  6 11  1  0
  7 14  2  0
  8 14  1  0
  9 15  1  0
 10 16  2  0
 11 17  2  0
 12 18  2  0
 13 15  2  0
 13 17  1  0
 14 19  1  0
 15 20  1  0
 16 18  1  0
 16 22  1  0
 17 23  1  0
 18 27  1  0
 19 23  1  0
 19 25  2  0
 20 24  1  0
 20 26  2  0
 21 27  1  0
 22 24  1  0
M  END
>  <washed_aromatic_smiles>  (306) 
COc1ccccc1CNC(=O)c2cccc(c2)NC(=O)c3ccccc3

>  <name>  (306) 
neg182666

$$$$
neg205539
     RDKit          3D

 26 28  0  0  0  0  0  0  0  0999 V2000
    5.2470   13.0830   55.0930 C   0  0  0  0  0  0  0  0  0  0  0  0
    5.1950   12.9330   56.4760 C   0  0  0  0  0  0  0  0  0  0  0  0
    5.2200   11.9650   54.2640 C   0  0  0  0  0  0  0  0  0  0  0  0
    2.7590    3.5110   51.8900 C   0  0  0  0  0  0  0  0  0  0  0  0
    2.3720    4.0950   49.5810 C   0  0  0  0  0  0  0  0  0  0  0  0
    3.0140    4.8410   52.1830 C   0  0  0  0  0  0  0  0  0  0  0  0
    2.6580    5.4210   49.8840 C   0  0  0  0  0  0  0  0  0  0  0  0
    5.0950   11.6640   57.0330 C   0  0  0  0  0  0  0  0  0  0  0  0
    5.1270   10.6820   54.8050 C   0  0  0  0  0  0  0  0  0  0  0  0
    2.3570    3.1370   50.6050 C   0  0  0  0  0  0  0  0  0  0  0  0
    2.8390    5.8130   51.2110 C   0  0  0  0  0  0  0  0  0  0  0  0
    5.0630   10.5510   56.1960 C   0  0  0  0  0  0  0  0  0  0  0  0
    2.6340    7.7520   52.8240 C   0  0  0  0  0  0  0  0  0  0  0  0
    2.7200    0.6950   50.9410 C   0  0  0  0  0  0  0  0  0  0  0  0
    1.2080    1.4470   49.1540 C   0  0  0  0  0  0  0  0  0  0  0  0
    1.9050   -0.6020   51.0060 C   0  0  0  0  0  0  0  0  0  0  0  0
    0.4600    0.1100   49.2870 C   0  0  0  0  0  0  0  0  0  0  0  0
    3.6960    8.7130   56.9210 C   0  0  0  0  0  0  0  0  0  0  0  0
    5.1400    9.4730   53.8850 C   0  0  0  0  0  0  0  0  0  0  0  0
    2.8830    9.2350   52.9930 C   0  0  0  0  0  0  0  0  0  0  0  0
    1.9240    1.8060   50.3870 N   0  0  0  0  0  0  0  0  0  0  0  0
    2.8470    7.2000   51.5680 N   0  0  0  0  0  0  0  0  0  0  0  0
    4.2680    9.6470   52.7280 N   0  0  0  0  0  0  0  0  0  0  0  0
    2.2560    7.0860   53.7700 O   0  0  0  0  0  0  0  0  0  0  0  0
    1.3220   -0.9240   49.7470 O   0  0  0  0  0  0  0  0  0  0  0  0
    4.9940    9.3120   56.7730 O   0  0  0  0  0  0  0  0  0  0  0  0
  1  2  2  0
  1  3  1  0
  2  8  1  0
  3  9  2  0
  4  6  2  0
  4 10  1  0
  5  7  1  0
  5 10  2  0
  6 11  1  0
  7 11  2  0
  8 12  2  0
  9 12  1  0
  9 19  1  0
 10 21  1  0
 11 22  1  0
 12 26  1  0
 13 20  1  0
 13 22  1  0
 13 24  2  0
 14 16  1  0
 14 21  1  0
 15 17  1  0
 15 21  1  0
 16 25  1  0
 17 25  1  0
 18 26  1  0
 19 23  1  0
 20 23  1  0
M  END
>  <washed_aromatic_smiles>  (307) 
COc1ccccc1CNCC(=O)Nc2ccc(cc2)N3CCOCC3

>  <name>  (307) 
neg205539

$$$$
neg19603
     RDKit          3D

 27 29  0  0  0  0  0  0  0  0999 V2000
    4.8580    9.7640   54.8990 C   0  0  0  0  0  0  0  0  0  0  0  0
    4.0070    9.5800   55.9850 C   0  0  0  0  0  0  0  0  0  0  0  0
    2.6740    3.8440   51.1640 C   0  0  0  0  0  0  0  0  0  0  0  0
    1.8800    4.4750   48.9920 C   0  0  0  0  0  0  0  0  0  0  0  0
    4.5250    9.2480   53.6500 C   0  0  0  0  0  0  0  0  0  0  0  0
    2.8140    8.8910   55.8170 C   0  0  0  0  0  0  0  0  0  0  0  0
    2.3000    2.5440   50.9060 C   0  0  0  0  0  0  0  0  0  0  0  0
    1.3920    3.1810   48.7890 C   0  0  0  0  0  0  0  0  0  0  0  0
    2.4970    4.8280   50.2060 C   0  0  0  0  0  0  0  0  0  0  0  0
    3.3400    8.5360   53.4660 C   0  0  0  0  0  0  0  0  0  0  0  0
    2.4900    8.3780   54.5610 C   0  0  0  0  0  0  0  0  0  0  0  0
    1.5640    2.2030   49.7710 C   0  0  0  0  0  0  0  0  0  0  0  0
    2.9880    6.1670   50.4920 C   0  0  0  0  0  0  0  0  0  0  0  0
    0.4930    0.3830   52.3280 C   0  0  0  0  0  0  0  0  0  0  0  0
    2.3130   -0.9880   51.3380 C   0  0  0  0  0  0  0  0  0  0  0  0
    1.3870    0.5140   53.5520 C   0  0  0  0  0  0  0  0  0  0  0  0
    2.8800   -1.0170   52.7700 C   0  0  0  0  0  0  0  0  0  0  0  0
    0.2210    8.4570   53.7520 C   0  0  0  0  0  0  0  0  0  0  0  0
    2.9250    8.0690   52.0820 C   0  0  0  0  0  0  0  0  0  0  0  0
    1.1770   -0.1030   51.1410 N   0  0  0  0  0  0  0  0  0  0  0  0
    3.4840    6.8700   49.6310 O   0  0  0  0  0  0  0  0  0  0  0  0
   -0.6390    0.7580   49.7740 O   0  0  0  0  0  0  0  0  0  0  0  0
    1.2240   -0.1700   48.6070 O   0  0  0  0  0  0  0  0  0  0  0  0
    1.9730   -0.7260   53.8140 O   0  0  0  0  0  0  0  0  0  0  0  0
    1.2900    7.7440   54.3950 O   0  0  0  0  0  0  0  0  0  0  0  0
    2.9150    6.6280   51.7930 O   0  0  0  0  0  0  0  0  0  0  0  0
    0.7540    0.5800   49.7130 S   0  0  0  0  0  0  0  0  0  0  0  0
  1  2  2  0
  1  5  1  0
  2  6  1  0
  3  7  2  0
  3  9  1  0
  4  8  1  0
  4  9  2  0
  5 10  2  0
  6 11  2  0
  7 12  1  0
  8 12  2  0
  9 13  1  0
 10 11  1  0
 10 19  1  0
 11 25  1  0
 12 27  1  0
 13 21  2  0
 13 26  1  0
 14 16  1  0
 14 20  1  0
 15 17  1  0
 15 20  1  0
 16 24  1  0
 17 24  1  0
 18 25  1  0
 19 26  1  0
 20 27  1  0
 22 27  2  0
 23 27  2  0
M  END
>  <washed_aromatic_smiles>  (308) 
COc1ccccc1COC(=O)c2ccc(cc2)S(=O)(=O)N3CCOCC3

>  <name>  (308) 
neg19603

$$$$
neg275393
     RDKit          3D

 26 29  0  0  0  0  0  0  0  0999 V2000
    1.9960    9.2470   56.8510 C   0  0  0  0  0  0  0  0  0  0  0  0
    3.2370    9.8000   57.1390 C   0  0  0  0  0  0  0  0  0  0  0  0
    1.3170   -0.6950   53.3690 C   0  0  0  0  0  0  0  0  0  0  0  0
    1.6830    8.8390   55.5630 C   0  0  0  0  0  0  0  0  0  0  0  0
    4.1710    9.9460   56.1270 C   0  0  0  0  0  0  0  0  0  0  0  0
    0.9420    0.3880   52.5880 C   0  0  0  0  0  0  0  0  0  0  0  0
    2.7080    2.9090   51.2900 C   0  0  0  0  0  0  0  0  0  0  0  0
    2.4980   -1.1400   52.8880 C   0  0  0  0  0  0  0  0  0  0  0  0
    2.6260    8.8880   54.5440 C   0  0  0  0  0  0  0  0  0  0  0  0
    3.8840    9.4970   54.8410 C   0  0  0  0  0  0  0  0  0  0  0  0
    1.9430    0.5990   51.7000 C   0  0  0  0  0  0  0  0  0  0  0  0
    2.1680    1.7540   50.8870 C   0  0  0  0  0  0  0  0  0  0  0  0
    2.6410    3.7730   50.2140 C   0  0  0  0  0  0  0  0  0  0  0  0
    3.1270    5.1410   50.2150 C   0  0  0  0  0  0  0  0  0  0  0  0
    1.8850    6.8220   53.5340 C   0  0  0  0  0  0  0  0  0  0  0  0
    3.2130    8.2530   52.3120 C   0  0  0  0  0  0  0  0  0  0  0  0
    1.8680    5.8050   52.3130 C   0  0  0  0  0  0  0  0  0  0  0  0
    2.9370    7.3560   51.1060 C   0  0  0  0  0  0  0  0  0  0  0  0
    6.1140    8.9240   54.1080 C   0  0  0  0  0  0  0  0  0  0  0  0
    2.1080    3.1500   49.1940 N   0  0  0  0  0  0  0  0  0  0  0  0
    2.2120    8.2450   53.3170 N   0  0  0  0  0  0  0  0  0  0  0  0
    2.9480    5.9630   51.3380 N   0  0  0  0  0  0  0  0  0  0  0  0
    3.7330    5.5900   49.2380 O   0  0  0  0  0  0  0  0  0  0  0  0
    2.8930   -0.3660   51.8550 O   0  0  0  0  0  0  0  0  0  0  0  0
    1.8150    1.9140   49.6010 O   0  0  0  0  0  0  0  0  0  0  0  0
    4.9020    9.6910   53.9310 O   0  0  0  0  0  0  0  0  0  0  0  0
  1  2  2  0
  1  4  1  0
  2  5  1  0
  3  6  1  0
  3  8  2  0
  4  9  2  0
  5 10  2  0
  6 11  2  0
  7 12  2  0
  7 13  1  0
  8 24  1  0
  9 10  1  0
  9 21  1  0
 10 26  1  0
 11 12  1  0
 11 24  1  0
 12 25  1  0
 13 14  1  0
 13 20  2  0
 14 22  1  0
 14 23  2  0
 15 17  1  0
 15 21  1  0
 16 18  1  0
 16 21  1  0
 17 22  1  0
 18 22  1  0
 19 26  1  0
 20 25  1  0
M  END
>  <washed_aromatic_smiles>  (309) 
COc1ccccc1N2CCN(CC2)C(=O)c3cc(on3)c4ccco4

>  <name>  (309) 
neg275393

$$$$
neg287963
     RDKit          3D

 31 34  0  0  0  0  0  0  0  0999 V2000
    5.4350   12.2090   58.2420 C   0  0  0  0  0  0  0  0  0  0  0  0
    5.6520   13.2510   57.3430 C   0  0  0  0  0  0  0  0  0  0  0  0
    0.8350    6.1600   52.1150 C   0  0  0  0  0  0  0  0  0  0  0  0
    2.7990    7.0770   51.1230 C   0  0  0  0  0  0  0  0  0  0  0  0
    5.0010   10.9680   57.7880 C   0  0  0  0  0  0  0  0  0  0  0  0
    5.4400   13.0520   55.9800 C   0  0  0  0  0  0  0  0  0  0  0  0
    1.0410    4.9910   51.3990 C   0  0  0  0  0  0  0  0  0  0  0  0
    3.0110    5.8930   50.4200 C   0  0  0  0  0  0  0  0  0  0  0  0
    1.7480    7.2070   52.0320 C   0  0  0  0  0  0  0  0  0  0  0  0
    4.8030   10.7550   56.4220 C   0  0  0  0  0  0  0  0  0  0  0  0
    5.0350   11.8060   55.5180 C   0  0  0  0  0  0  0  0  0  0  0  0
    2.1460    4.8120   50.5820 C   0  0  0  0  0  0  0  0  0  0  0  0
    1.5440    8.3960   52.8690 C   0  0  0  0  0  0  0  0  0  0  0  0
    0.1980   -0.3240   48.7640 C   0  0  0  0  0  0  0  0  0  0  0  0
    0.6070    0.6560   47.6650 C   0  0  0  0  0  0  0  0  0  0  0  0
    0.9310    0.0050   50.0630 C   0  0  0  0  0  0  0  0  0  0  0  0
    0.6940    2.1380   48.0980 C   0  0  0  0  0  0  0  0  0  0  0  0
    0.6080    1.4230   50.4740 C   0  0  0  0  0  0  0  0  0  0  0  0
    4.8760    8.8380   54.8100 C   0  0  0  0  0  0  0  0  0  0  0  0
    2.8720    9.3820   56.2170 C   0  0  0  0  0  0  0  0  0  0  0  0
    3.9440    8.6660   53.5760 C   0  0  0  0  0  0  0  0  0  0  0  0
    2.1550    8.5360   55.1610 C   0  0  0  0  0  0  0  0  0  0  0  0
    5.4790   12.3150   53.1220 C   0  0  0  0  0  0  0  0  0  0  0  0
    4.3190    9.4920   56.0200 N   0  0  0  0  0  0  0  0  0  0  0  0
    2.4980    8.8200   53.7890 N   0  0  0  0  0  0  0  0  0  0  0  0
    1.1390    2.3850   49.4910 N   0  0  0  0  0  0  0  0  0  0  0  0
    0.4560    8.9680   52.8940 O   0  0  0  0  0  0  0  0  0  0  0  0
    3.2450    3.4600   48.6340 O   0  0  0  0  0  0  0  0  0  0  0  0
    3.2020    2.4650   50.8630 O   0  0  0  0  0  0  0  0  0  0  0  0
    4.8180   11.6060   54.1700 O   0  0  0  0  0  0  0  0  0  0  0  0
    2.5350    3.2070   49.8460 S   0  0  0  0  0  0  0  0  0  0  0  0
  1  2  2  0
  1  5  1  0
  2  6  1  0
  3  7  2  0
  3  9  1  0
  4  8  1  0
  4  9  2  0
  5 10  2  0
  6 11  2  0
  7 12  1  0
  8 12  2  0
  9 13  1  0
 10 11  1  0
 10 24  1  0
 11 30  1  0
 12 31  1  0
 13 25  1  0
 13 27  2  0
 14 15  1  0
 14 16  1  0
 15 17  1  0
 16 18  1  0
 17 26  1  0
 18 26  1  0
 19 21  1  0
 19 24  1  0
 20 22  1  0
 20 24  1  0
 21 25  1  0
 22 25  1  0
 23 30  1  0
 26 31  1  0
 28 31  2  0
 29 31  2  0
M  END
>  <washed_aromatic_smiles>  (310) 
COc1ccccc1N2CCN(CC2)C(=O)c3ccc(cc3)S(=O)(=O)N4CCCCC4

>  <name>  (310) 
neg287963

$$$$
neg15120
     RDKit          3D

 32 35  0  0  0  0  0  0  0  0999 V2000
    3.4200   -0.5570   51.3790 C   0  0  0  0  0  0  0  0  0  0  0  0
    2.4630   -1.0170   52.2740 C   0  0  0  0  0  0  0  0  0  0  0  0
    4.1710    9.4830   52.8290 C   0  0  0  0  0  0  0  0  0  0  0  0
    3.2900    8.5800   52.2440 C   0  0  0  0  0  0  0  0  0  0  0  0
    3.3220    0.7010   50.8310 C   0  0  0  0  0  0  0  0  0  0  0  0
    1.3320   -0.2490   52.5100 C   0  0  0  0  0  0  0  0  0  0  0  0
    4.0980    9.7470   54.1870 C   0  0  0  0  0  0  0  0  0  0  0  0
    2.2090    8.2620   54.3510 C   0  0  0  0  0  0  0  0  0  0  0  0
    2.3200    7.9290   53.0000 C   0  0  0  0  0  0  0  0  0  0  0  0
    2.2630    1.5330   51.1620 C   0  0  0  0  0  0  0  0  0  0  0  0
    1.1890    0.9670   51.8520 C   0  0  0  0  0  0  0  0  0  0  0  0
    3.1150    9.1380   54.9590 C   0  0  0  0  0  0  0  0  0  0  0  0
    1.4140    6.9610   52.3790 C   0  0  0  0  0  0  0  0  0  0  0  0
    6.5030    7.6120   59.3950 C   0  0  0  0  0  0  0  0  0  0  0  0
    5.3920    6.5770   59.3290 C   0  0  0  0  0  0  0  0  0  0  0  0
    5.9590    9.0260   59.1800 C   0  0  0  0  0  0  0  0  0  0  0  0
    5.0000    6.2060   57.9090 C   0  0  0  0  0  0  0  0  0  0  0  0
    5.5070    9.3850   57.7710 C   0  0  0  0  0  0  0  0  0  0  0  0
    4.6660    7.3330   56.8900 C   0  0  0  0  0  0  0  0  0  0  0  0
    2.9520    3.5250   52.2290 C   0  0  0  0  0  0  0  0  0  0  0  0
    1.7070    3.8410   50.1320 C   0  0  0  0  0  0  0  0  0  0  0  0
    3.1240    5.0970   52.1750 C   0  0  0  0  0  0  0  0  0  0  0  0
    1.0260    5.0040   50.9030 C   0  0  0  0  0  0  0  0  0  0  0  0
   -0.8250    0.7590   50.8310 C   0  0  0  0  0  0  0  0  0  0  0  0
    2.4460    2.9230   51.0030 N   0  0  0  0  0  0  0  0  0  0  0  0
    1.8950    5.7930   51.7800 N   0  0  0  0  0  0  0  0  0  0  0  0
    4.3010    8.6650   57.3910 N   0  0  0  0  0  0  0  0  0  0  0  0
    0.2000    7.1580   52.3620 O   0  0  0  0  0  0  0  0  0  0  0  0
    3.2110   10.9130   56.8780 O   0  0  0  0  0  0  0  0  0  0  0  0
    1.7870    8.9920   57.1870 O   0  0  0  0  0  0  0  0  0  0  0  0
   -0.0430    1.5130   51.7550 O   0  0  0  0  0  0  0  0  0  0  0  0
    3.0180    9.5100   56.7080 S   0  0  0  0  0  0  0  0  0  0  0  0
  1  2  2  0
  1  5  1  0
  2  6  1  0
  3  4  2  0
  3  7  1  0
  4  9  1  0
  5 10  2  0
  6 11  2  0
  7 12  2  0
  8  9  2  0
  8 12  1  0
  9 13  1  0
 10 11  1  0
 10 25  1  0
 11 31  1  0
 12 32  1  0
 13 26  1  0
 13 28  2  0
 14 15  1  0
 14 16  1  0
 15 17  1  0
 16 18  1  0
 17 19  1  0
 18 27  1  0
 19 27  1  0
 20 22  1  0
 20 25  1  0
 21 23  1  0
 21 25  1  0
 22 26  1  0
 23 26  1  0
 24 31  1  0
 27 32  1  0
 29 32  2  0
 30 32  2  0
M  END
>  <washed_aromatic_smiles>  (311) 
COc1ccccc1N2CCN(CC2)C(=O)c3cccc(c3)S(=O)(=O)N4CCCCCC4

>  <name>  (311) 
neg15120

$$$$
neg316877
     RDKit          3D

 27 29  0  0  0  0  0  0  0  0999 V2000
    4.1430    9.3410   57.1860 C   0  0  0  0  0  0  0  0  0  0  0  0
    4.9040   10.4790   56.9560 C   0  0  0  0  0  0  0  0  0  0  0  0
    2.2680   -1.0080   50.5250 C   0  0  0  0  0  0  0  0  0  0  0  0
    3.5150    8.6900   56.1300 C   0  0  0  0  0  0  0  0  0  0  0  0
    5.0400   10.9680   55.6620 C   0  0  0  0  0  0  0  0  0  0  0  0
    1.2600   -0.1040   50.3510 C   0  0  0  0  0  0  0  0  0  0  0  0
    3.4860   -0.5880   51.0070 C   0  0  0  0  0  0  0  0  0  0  0  0
    3.6320    9.1640   54.8190 C   0  0  0  0  0  0  0  0  0  0  0  0
    4.3970   10.3270   54.5990 C   0  0  0  0  0  0  0  0  0  0  0  0
    1.4600    1.1870   50.8220 C   0  0  0  0  0  0  0  0  0  0  0  0
    3.7340    0.7430   51.2840 C   0  0  0  0  0  0  0  0  0  0  0  0
    2.7000    1.6740   51.2090 C   0  0  0  0  0  0  0  0  0  0  0  0
    1.5760    8.2110   53.7230 C   0  0  0  0  0  0  0  0  0  0  0  0
    3.7040    7.1180   53.6370 C   0  0  0  0  0  0  0  0  0  0  0  0
    1.0590    7.2850   52.5750 C   0  0  0  0  0  0  0  0  0  0  0  0
    3.2780    6.2750   52.4270 C   0  0  0  0  0  0  0  0  0  0  0  0
    4.7600   12.2680   53.1130 C   0  0  0  0  0  0  0  0  0  0  0  0
   -0.7070    1.1940   51.5560 C   0  0  0  0  0  0  0  0  0  0  0  0
    6.0330    0.4300   50.6910 C   0  0  0  0  0  0  0  0  0  0  0  0
    1.4400    5.1850   51.1300 C   0  0  0  0  0  0  0  0  0  0  0  0
    2.4250    4.1080   50.5810 C   0  0  0  0  0  0  0  0  0  0  0  0
    3.0520    8.4240   53.7330 N   0  0  0  0  0  0  0  0  0  0  0  0
    1.8290    5.9850   52.3670 N   0  0  0  0  0  0  0  0  0  0  0  0
    4.4850   10.8580   53.3240 O   0  0  0  0  0  0  0  0  0  0  0  0
    0.4050    1.9170   51.0880 O   0  0  0  0  0  0  0  0  0  0  0  0
    5.0180    1.0450   51.5730 O   0  0  0  0  0  0  0  0  0  0  0  0
    2.8400    3.0410   51.5340 O   0  0  0  0  0  0  0  0  0  0  0  0
  1  2  2  0
  1  4  1  0
  2  5  1  0
  3  6  2  0
  3  7  1  0
  4  8  2  0
  5  9  2  0
  6 10  1  0
  7 11  2  0
  8  9  1  0
  8 22  1  0
  9 24  1  0
 10 12  2  0
 10 25  1  0
 11 12  1  0
 11 26  1  0
 12 27  1  0
 13 15  1  0
 13 22  1  0
 14 16  1  0
 14 22  1  0
 15 23  1  0
 16 23  1  0
 17 24  1  0
 18 25  1  0
 19 26  1  0
 20 21  1  0
 20 23  1  0
 21 27  1  0
M  CHG  1  23   1
M  END
>  <washed_aromatic_smiles>  (312) 
COc1ccccc1N2CCN(CC2)CCOc3c(cccc3OC)OC

>  <name>  (312) 
neg316877

$$$$
neg168737
     RDKit          3D

 28 30  0  0  0  0  0  0  0  0999 V2000
    0.8640   -0.3150   48.7550 C   0  0  0  0  0  0  0  0  0  0  0  0
    1.4450   -0.5450   50.0180 C   0  0  0  0  0  0  0  0  0  0  0  0
    5.2510   12.6710   56.3020 C   0  0  0  0  0  0  0  0  0  0  0  0
    5.4360   12.3810   57.6520 C   0  0  0  0  0  0  0  0  0  0  0  0
    0.8600    0.9460   48.2080 C   0  0  0  0  0  0  0  0  0  0  0  0
    1.9660    0.4960   50.7400 C   0  0  0  0  0  0  0  0  0  0  0  0
    1.4390    3.3560   48.4080 C   0  0  0  0  0  0  0  0  0  0  0  0
    4.7780   11.6970   55.4290 C   0  0  0  0  0  0  0  0  0  0  0  0
    5.1600   11.1050   58.1390 C   0  0  0  0  0  0  0  0  0  0  0  0
    1.7940    4.4150   49.2100 C   0  0  0  0  0  0  0  0  0  0  0  0
    2.2940    2.9190   51.0170 C   0  0  0  0  0  0  0  0  0  0  0  0
    1.4130    2.0380   48.9260 C   0  0  0  0  0  0  0  0  0  0  0  0
    1.9200    1.8130   50.2240 C   0  0  0  0  0  0  0  0  0  0  0  0
    4.4800   10.4170   55.9130 C   0  0  0  0  0  0  0  0  0  0  0  0
    4.6980   10.1200   57.2670 C   0  0  0  0  0  0  0  0  0  0  0  0
    2.1520    4.2090   50.5600 C   0  0  0  0  0  0  0  0  0  0  0  0
    3.8560    9.2660   53.7100 C   0  0  0  0  0  0  0  0  0  0  0  0
    3.0080    8.2090   53.2190 C   0  0  0  0  0  0  0  0  0  0  0  0
    5.2900    8.1990   58.7150 C   0  0  0  0  0  0  0  0  0  0  0  0
    3.9090    9.3970   55.1010 N   0  0  0  0  0  0  0  0  0  0  0  0
    3.0270    8.0020   51.8660 N   0  0  0  0  0  0  0  0  0  0  0  0
    2.7500    6.8780   51.0780 N   0  0  0  0  0  0  0  0  0  0  0  0
    4.5510   10.0220   53.0070 O   0  0  0  0  0  0  0  0  0  0  0  0
    2.2730    7.5030   53.9980 O   0  0  0  0  0  0  0  0  0  0  0  0
    0.9600    5.7040   52.3000 O   0  0  0  0  0  0  0  0  0  0  0  0
    3.3040    5.1150   52.7010 O   0  0  0  0  0  0  0  0  0  0  0  0
    4.4510    8.8320   57.7220 O   0  0  0  0  0  0  0  0  0  0  0  0
    2.2830    5.5170   51.7830 S   0  0  1  0  0  0  0  0  0  0  0  0
  1  2  2  0
  1  5  1  0
  2  6  1  0
  3  4  2  0
  3  8  1  0
  4  9  1  0
  5 12  2  0
  6 13  2  0
  7 10  2  0
  7 12  1  0
  8 14  2  0
  9 15  2  0
 10 16  1  0
 11 13  1  0
 11 16  2  0
 12 13  1  0
 14 15  1  0
 14 20  1  0
 15 27  1  0
 16 28  1  0
 17 18  1  0
 17 20  1  0
 17 23  2  0
 18 21  1  0
 18 24  2  0
 19 27  1  0
 21 22  1  0
 22 28  2  0
 25 28  2  0
 28 26  1  1
M  CHG  1  26  -1
M  END
>  <washed_aromatic_smiles>  (313) 
COc1ccccc1NC(=O)C(=O)NNS(=O)(=O)c2ccc3ccccc3c2

>  <name>  (313) 
neg168737

$$$$
neg81292
     RDKit          3D

 27 29  0  0  0  0  0  0  0  0999 V2000
    4.7360    8.7350   57.8410 C   0  0  0  0  0  0  0  0  0  0  0  0
    3.5040    9.1710   57.3670 C   0  0  0  0  0  0  0  0  0  0  0  0
    5.7880    8.5560   56.9500 C   0  0  0  0  0  0  0  0  0  0  0  0
    0.3460    0.2660   52.0440 C   0  0  0  0  0  0  0  0  0  0  0  0
    1.1650   -0.3380   53.0000 C   0  0  0  0  0  0  0  0  0  0  0  0
    3.3230    9.4380   56.0230 C   0  0  0  0  0  0  0  0  0  0  0  0
    5.6030    8.8200   55.5950 C   0  0  0  0  0  0  0  0  0  0  0  0
    0.8460    1.2440   51.1960 C   0  0  0  0  0  0  0  0  0  0  0  0
    2.5160   -0.0270   53.0580 C   0  0  0  0  0  0  0  0  0  0  0  0
    4.3720    9.2750   55.1310 C   0  0  0  0  0  0  0  0  0  0  0  0
    2.1710    1.6390   51.3360 C   0  0  0  0  0  0  0  0  0  0  0  0
    3.0150    0.9230   52.1790 C   0  0  0  0  0  0  0  0  0  0  0  0
    2.1550    3.5440   49.7360 C   0  0  0  0  0  0  0  0  0  0  0  0
    2.3410    7.8870   53.0800 C   0  0  0  0  0  0  0  0  0  0  0  0
    3.3370    5.7140   50.5670 C   0  0  0  0  0  0  0  0  0  0  0  0
    0.8460    5.4040   50.7250 C   0  0  0  0  0  0  0  0  0  0  0  0
    3.2160    5.7330   52.1030 C   0  0  0  0  0  0  0  0  0  0  0  0
    0.8570    6.4510   51.8510 C   0  0  0  0  0  0  0  0  0  0  0  0
    2.1150    5.0520   49.9260 C   0  0  0  0  0  0  0  0  0  0  0  0
    4.8250    0.3150   50.9220 C   0  0  0  0  0  0  0  0  0  0  0  0
    4.1360    9.5210   53.6670 C   0  0  0  0  0  0  0  0  0  0  0  0
    2.1320    6.6360   52.5280 N   0  0  0  0  0  0  0  0  0  0  0  0
    2.6790    2.8320   50.7720 N   0  0  0  0  0  0  0  0  0  0  0  0
    3.6270    8.3310   53.0440 N   0  0  0  0  0  0  0  0  0  0  0  0
    1.6350    2.9730   48.7930 O   0  0  0  0  0  0  0  0  0  0  0  0
    1.4210    8.5680   53.5470 O   0  0  0  0  0  0  0  0  0  0  0  0
    4.3500    1.0800   52.0430 O   0  0  0  0  0  0  0  0  0  0  0  0
  1  2  2  0
  1  3  1  0
  2  6  1  0
  3  7  2  0
  4  5  2  0
  4  8  1  0
  5  9  1  0
  6 10  2  0
  7 10  1  0
  8 11  2  0
  9 12  2  0
 10 21  1  0
 11 12  1  0
 11 23  1  0
 12 27  1  0
 13 19  1  0
 13 23  1  0
 13 25  2  0
 14 22  1  0
 14 24  1  0
 14 26  2  0
 15 17  1  0
 15 19  1  0
 16 18  1  0
 16 19  1  0
 17 22  1  0
 18 22  1  0
 20 27  1  0
 21 24  1  0
M  END
>  <washed_aromatic_smiles>  (314) 
COc1ccccc1NC(=O)C2CCN(CC2)C(=O)NCc3ccccc3

>  <name>  (314) 
neg81292

$$$$
neg99643
     RDKit          3D

 28 30  0  0  0  0  0  0  0  0999 V2000
    3.3850   -0.4220   55.2560 C   0  0  0  0  0  0  0  0  0  0  0  0
    0.9240    0.3300   46.8610 C   0  0  0  0  0  0  0  0  0  0  0  0
    3.2030    0.9510   55.3110 C   0  0  0  0  0  0  0  0  0  0  0  0
    3.1980   -1.0850   54.0510 C   0  0  0  0  0  0  0  0  0  0  0  0
    3.3630    7.8810   54.6820 C   0  0  0  0  0  0  0  0  0  0  0  0
    3.1310    8.8980   53.7850 C   0  0  0  0  0  0  0  0  0  0  0  0
    0.6940    1.6100   47.3370 C   0  0  0  0  0  0  0  0  0  0  0  0
    1.1050   -0.7100   47.7620 C   0  0  0  0  0  0  0  0  0  0  0  0
    2.8330    1.6340   54.1630 C   0  0  0  0  0  0  0  0  0  0  0  0
    2.8790   -0.4060   52.8980 C   0  0  0  0  0  0  0  0  0  0  0  0
    3.3650    6.5760   54.2290 C   0  0  0  0  0  0  0  0  0  0  0  0
    2.9030    8.5960   52.4540 C   0  0  0  0  0  0  0  0  0  0  0  0
    0.6520    1.8390   48.7040 C   0  0  0  0  0  0  0  0  0  0  0  0
    0.9660   -0.4980   49.1240 C   0  0  0  0  0  0  0  0  0  0  0  0
    2.6300    0.9580   52.9680 C   0  0  0  0  0  0  0  0  0  0  0  0
    3.1320    6.2480   52.8870 C   0  0  0  0  0  0  0  0  0  0  0  0
    2.9360    7.2840   51.9810 C   0  0  0  0  0  0  0  0  0  0  0  0
    0.7310    0.7800   49.6140 C   0  0  0  0  0  0  0  0  0  0  0  0
    2.3200    4.1850   51.6330 C   0  0  0  0  0  0  0  0  0  0  0  0
    3.5210    6.1470   49.6830 C   0  0  0  0  0  0  0  0  0  0  0  0
    2.7000    2.7580   51.2150 C   0  0  0  0  0  0  0  0  0  0  0  0
    3.1740    4.8700   52.4850 N   0  0  0  0  0  0  0  0  0  0  0  0
    2.0670    1.6040   51.8570 N   0  0  0  0  0  0  0  0  0  0  0  0
    1.2970    4.7140   51.2390 O   0  0  0  0  0  0  0  0  0  0  0  0
   -0.4320    1.9090   51.6960 O   0  0  0  0  0  0  0  0  0  0  0  0
    0.3870   -0.2490   51.9940 O   0  0  0  0  0  0  0  0  0  0  0  0
    2.9020    7.0820   50.6110 O   0  0  0  0  0  0  0  0  0  0  0  0
    0.5780    0.9960   51.3920 S   0  0  0  0  0  0  0  0  0  0  0  0
  1  3  2  0
  1  4  1  0
  2  7  2  0
  2  8  1  0
  3  9  1  0
  4 10  2  0
  5  6  2  0
  5 11  1  0
  6 12  1  0
  7 13  1  0
  8 14  2  0
  9 15  2  0
 10 15  1  0
 11 16  2  0
 12 17  2  0
 13 18  2  0
 14 18  1  0
 15 23  1  0
 16 17  1  0
 16 22  1  0
 17 27  1  0
 18 28  1  0
 19 21  1  0
 19 22  1  0
 19 24  2  0
 20 27  1  0
 21 23  1  0
 23 28  1  0
 25 28  2  0
 26 28  2  0
M  END
>  <washed_aromatic_smiles>  (315) 
COc1ccccc1NC(=O)CN(c2ccccc2)S(=O)(=O)c3ccccc3

>  <name>  (315) 
neg99643

$$$$
neg102318
     RDKit          3D

 30 32  0  0  0  0  0  0  0  0999 V2000
    0.8780    0.3210   46.5460 C   0  0  0  0  0  0  0  0  0  0  0  0
    5.0090   -1.2150   57.0370 C   0  0  0  0  0  0  0  0  0  0  0  0
    3.2310    3.8780   48.2840 C   0  0  0  0  0  0  0  0  0  0  0  0
    5.6270   -0.4570   58.0210 C   0  0  0  0  0  0  0  0  0  0  0  0
    3.2190    5.2090   48.6740 C   0  0  0  0  0  0  0  0  0  0  0  0
    0.4300    1.5340   47.0320 C   0  0  0  0  0  0  0  0  0  0  0  0
    1.2250   -0.6820   47.4400 C   0  0  0  0  0  0  0  0  0  0  0  0
    4.1930   -0.6120   56.0850 C   0  0  0  0  0  0  0  0  0  0  0  0
    2.8670    2.8840   49.1840 C   0  0  0  0  0  0  0  0  0  0  0  0
    5.4420    0.9170   58.0480 C   0  0  0  0  0  0  0  0  0  0  0  0
    2.8220    5.5450   49.9570 C   0  0  0  0  0  0  0  0  0  0  0  0
    0.4060    1.7570   48.4000 C   0  0  0  0  0  0  0  0  0  0  0  0
    1.0920   -0.4920   48.8090 C   0  0  0  0  0  0  0  0  0  0  0  0
    3.9900    0.7650   56.0890 C   0  0  0  0  0  0  0  0  0  0  0  0
    2.4550    3.1890   50.4810 C   0  0  0  0  0  0  0  0  0  0  0  0
    4.6430    1.5320   57.0810 C   0  0  0  0  0  0  0  0  0  0  0  0
    2.3940    4.5570   50.8430 C   0  0  0  0  0  0  0  0  0  0  0  0
    0.7500    0.7560   49.3160 C   0  0  0  0  0  0  0  0  0  0  0  0
    3.0220    0.9870   53.7240 C   0  0  0  0  0  0  0  0  0  0  0  0
    5.3260    3.8000   57.9300 C   0  0  0  0  0  0  0  0  0  0  0  0
    1.1910    6.2520   52.1930 C   0  0  0  0  0  0  0  0  0  0  0  0
    2.9970    2.0940   52.6560 C   0  0  0  0  0  0  0  0  0  0  0  0
    3.1670    1.3950   55.0630 N   0  0  0  0  0  0  0  0  0  0  0  0
    2.2090    2.0660   51.3700 N   0  0  0  0  0  0  0  0  0  0  0  0
    3.1360   -0.1830   53.4220 O   0  0  0  0  0  0  0  0  0  0  0  0
   -0.3070    1.6030   51.5810 O   0  0  0  0  0  0  0  0  0  0  0  0
    1.1900   -0.2550   51.6740 O   0  0  0  0  0  0  0  0  0  0  0  0
    4.5380    2.9050   57.0860 O   0  0  0  0  0  0  0  0  0  0  0  0
    1.8850    4.9760   52.0460 O   0  0  0  0  0  0  0  0  0  0  0  0
    0.8850    1.0030   51.1080 S   0  0  0  0  0  0  0  0  0  0  0  0
  1  6  2  0
  1  7  1  0
  2  4  2  0
  2  8  1  0
  3  5  2  0
  3  9  1  0
  4 10  1  0
  5 11  1  0
  6 12  1  0
  7 13  2  0
  8 14  2  0
  9 15  2  0
 10 16  2  0
 11 17  2  0
 12 18  2  0
 13 18  1  0
 14 16  1  0
 14 23  1  0
 15 17  1  0
 15 24  1  0
 16 28  1  0
 17 29  1  0
 18 30  1  0
 19 22  1  0
 19 23  1  0
 19 25  2  0
 20 28  1  0
 21 29  1  0
 22 24  1  0
 24 30  1  0
 26 30  2  0
 27 30  2  0
M  END
>  <washed_aromatic_smiles>  (316) 
COc1ccccc1NC(=O)CN(c2ccccc2OC)S(=O)(=O)c3ccccc3

>  <name>  (316) 
neg102318

$$$$
neg9475
     RDKit          3D

 26 29  0  0  0  0  0  0  0  0999 V2000
    4.5650    8.4850   56.8660 C   0  0  0  0  0  0  0  0  0  0  0  0
    5.0570    9.7870   56.9190 C   0  0  0  0  0  0  0  0  0  0  0  0
    4.0290    7.9900   55.6820 C   0  0  0  0  0  0  0  0  0  0  0  0
    5.0360   10.5920   55.7820 C   0  0  0  0  0  0  0  0  0  0  0  0
    3.9680    8.7980   54.5490 C   0  0  0  0  0  0  0  0  0  0  0  0
    4.5040   10.0940   54.5880 C   0  0  0  0  0  0  0  0  0  0  0  0
    2.4880    4.8190   51.8020 C   0  0  0  0  0  0  0  0  0  0  0  0
    2.1670    7.6040   53.2960 C   0  0  0  0  0  0  0  0  0  0  0  0
    3.0010   -0.5470   52.3030 C   0  0  0  0  0  0  0  0  0  0  0  0
    1.4290   -0.5140   50.3390 C   0  0  0  0  0  0  0  0  0  0  0  0
    0.7900    0.2480   52.7470 C   0  0  0  0  0  0  0  0  0  0  0  0
    3.2200    1.1570   50.4970 C   0  0  0  0  0  0  0  0  0  0  0  0
    2.8110    1.8410   52.7230 C   0  0  0  0  0  0  0  0  0  0  0  0
    0.9140    1.7950   50.9050 C   0  0  0  0  0  0  0  0  0  0  0  0
    2.8530   -0.3010   50.8070 C   0  0  1  0  0  0  0  0  0  0  0  0
    2.2470    0.4650   53.1290 C   0  0  2  0  0  0  0  0  0  0  0  0
    0.5360    0.3600   51.2330 C   0  0  1  0  0  0  0  0  0  0  0  0
    2.3700    2.1850   51.2730 C   0  0  2  0  0  0  0  0  0  0  0  0
    4.8720   12.2620   53.3920 C   0  0  0  0  0  0  0  0  0  0  0  0
    2.5580    3.6620   50.7840 C   0  0  0  0  0  0  0  0  0  0  0  0
    1.7050    7.1310   51.9310 C   0  0  0  0  0  0  0  0  0  0  0  0
    3.3690    8.2880   53.3590 N   0  0  0  0  0  0  0  0  0  0  0  0
    1.4930    5.6990   51.6640 N   0  0  0  0  0  0  0  0  0  0  0  0
    3.4060    5.0280   52.5860 O   0  0  0  0  0  0  0  0  0  0  0  0
    1.4700    7.4810   54.2840 O   0  0  0  0  0  0  0  0  0  0  0  0
    4.4830   10.8680   53.4370 O   0  0  0  0  0  0  0  0  0  0  0  0
  1  2  2  0
  1  3  1  0
  2  4  1  0
  3  5  2  0
  4  6  2  0
  5  6  1  0
  5 22  1  0
  6 26  1  0
  7 20  1  0
  7 23  1  0
  7 24  2  0
  8 21  1  0
  8 22  1  0
  8 25  2  0
 15  9  1  1
 16  9  1  6
 10 15  1  0
 17 10  1  6
 11 16  1  0
 11 17  1  0
 12 15  1  0
 12 18  1  0
 13 16  1  0
 13 18  1  0
 14 17  1  0
 14 18  1  0
 18 20  1  6
 19 26  1  0
 21 23  1  0
M  END
>  <washed_aromatic_smiles>  (317) 
COc1ccccc1NC(=O)CNC(=O)CC23CC4CC(C2)CC(C4)C3

>  <name>  (317) 
neg9475

$$$$
neg63035
     RDKit          3D

 26 28  0  0  0  0  0  0  0  0999 V2000
    4.5500    8.3630   57.4470 C   0  0  0  0  0  0  0  0  0  0  0  0
    5.7680    8.3890   56.7730 C   0  0  0  0  0  0  0  0  0  0  0  0
    1.5760    3.2410   48.3710 C   0  0  0  0  0  0  0  0  0  0  0  0
    2.3250    2.2430   50.4470 C   0  0  0  0  0  0  0  0  0  0  0  0
    3.3710    8.6390   56.7610 C   0  0  0  0  0  0  0  0  0  0  0  0
    5.8170    8.7310   55.4210 C   0  0  0  0  0  0  0  0  0  0  0  0
    0.9350    2.0580   48.0360 C   0  0  0  0  0  0  0  0  0  0  0  0
    1.6900    1.0620   50.1180 C   0  0  0  0  0  0  0  0  0  0  0  0
    2.2420    3.3580   49.5990 C   0  0  0  0  0  0  0  0  0  0  0  0
    3.4220    8.9390   55.4040 C   0  0  0  0  0  0  0  0  0  0  0  0
    4.6510    9.0780   54.7550 C   0  0  0  0  0  0  0  0  0  0  0  0
    0.9760    0.9780   48.9230 C   0  0  0  0  0  0  0  0  0  0  0  0
    2.7540    4.6330   50.0400 C   0  0  0  0  0  0  0  0  0  0  0  0
    1.3000    8.2110   54.3090 C   0  0  0  0  0  0  0  0  0  0  0  0
    3.3330    5.5510   52.3790 C   0  0  0  0  0  0  0  0  0  0  0  0
    1.2180    6.2240   51.2320 C   0  0  0  0  0  0  0  0  0  0  0  0
    3.0640    6.8540   53.1580 C   0  0  0  0  0  0  0  0  0  0  0  0
    0.6300    6.6660   52.5660 C   0  0  0  0  0  0  0  0  0  0  0  0
    2.2520    5.1350   51.3820 C   0  0  0  0  0  0  0  0  0  0  0  0
    5.7520   10.4210   52.9820 C   0  0  0  0  0  0  0  0  0  0  0  0
    1.6600    7.1330   53.5150 N   0  0  0  0  0  0  0  0  0  0  0  0
    2.2210    9.1510   54.7150 N   0  0  0  0  0  0  0  0  0  0  0  0
    3.4700    5.3170   49.3390 O   0  0  0  0  0  0  0  0  0  0  0  0
    0.1290    8.4070   54.6210 O   0  0  0  0  0  0  0  0  0  0  0  0
    4.6850    9.5750   53.4650 O   0  0  0  0  0  0  0  0  0  0  0  0
    0.1340   -0.4760   48.5640 Cl  0  0  0  0  0  0  0  0  0  0  0  0
  1  2  2  0
  1  5  1  0
  2  6  1  0
  3  7  2  0
  3  9  1  0
  4  8  1  0
  4  9  2  0
  5 10  2  0
  6 11  2  0
  7 12  1  0
  8 12  2  0
  9 13  1  0
 10 11  1  0
 10 22  1  0
 11 25  1  0
 12 26  1  0
 13 19  1  0
 13 23  2  0
 14 21  1  0
 14 22  1  0
 14 24  2  0
 15 17  1  0
 15 19  1  0
 16 18  1  0
 16 19  1  0
 17 21  1  0
 18 21  1  0
 20 25  1  0
M  END
>  <washed_aromatic_smiles>  (318) 
COc1ccccc1NC(=O)N2CCC(CC2)C(=O)c3ccc(cc3)Cl

>  <name>  (318) 
neg63035

$$$$
neg239120
     RDKit          3D

 26 27  0  0  0  0  0  0  0  0999 V2000
    4.2300    7.7090   55.9890 C   0  0  0  0  0  0  0  0  0  0  0  0
    4.9510    8.8840   56.1500 C   0  0  0  0  0  0  0  0  0  0  0  0
    3.5060    7.4740   54.8200 C   0  0  0  0  0  0  0  0  0  0  0  0
    4.9470    9.8400   55.1450 C   0  0  0  0  0  0  0  0  0  0  0  0
    2.0390    2.1030   50.4080 C   0  0  0  0  0  0  0  0  0  0  0  0
    1.9980    4.5280   50.2170 C   0  0  0  0  0  0  0  0  0  0  0  0
    2.8390    3.4710   52.2050 C   0  0  0  0  0  0  0  0  0  0  0  0
    1.7790    3.2550   49.6650 C   0  0  0  0  0  0  0  0  0  0  0  0
    2.5690    2.1970   51.6910 C   0  0  0  0  0  0  0  0  0  0  0  0
    3.4910    8.4230   53.7990 C   0  0  0  0  0  0  0  0  0  0  0  0
    2.5660    4.6300   51.4850 C   0  0  0  0  0  0  0  0  0  0  0  0
    4.2130    9.6200   53.9770 C   0  0  0  0  0  0  0  0  0  0  0  0
    1.3850    3.0850   48.2830 C   0  0  0  0  0  0  0  0  0  0  0  0
    2.7920    0.9870   52.4780 C   0  0  0  0  0  0  0  0  0  0  0  0
    2.1150    7.0010   52.1880 C   0  0  0  0  0  0  0  0  0  0  0  0
    4.7610   11.9190   53.1460 C   0  0  0  0  0  0  0  0  0  0  0  0
    3.6030    3.8490   47.6510 C   0  0  0  0  0  0  0  0  0  0  0  0
    2.8730   -0.0180   54.7230 C   0  0  0  0  0  0  0  0  0  0  0  0
    2.6970    8.1980   52.6180 N   0  0  0  0  0  0  0  0  0  0  0  0
    2.9400    5.8900   52.0640 N   0  0  0  0  0  0  0  0  0  0  0  0
    0.4050    2.4700   47.9090 O   0  0  0  0  0  0  0  0  0  0  0  0
    2.9030   -0.1300   51.9960 O   0  0  0  0  0  0  0  0  0  0  0  0
    0.9160    6.9440   51.9190 O   0  0  0  0  0  0  0  0  0  0  0  0
    4.1790   10.5950   53.0040 O   0  0  0  0  0  0  0  0  0  0  0  0
    2.2250    3.5260   47.3460 O   0  0  0  0  0  0  0  0  0  0  0  0
    2.8380    1.1150   53.8240 O   0  0  0  0  0  0  0  0  0  0  0  0
  1  2  2  0
  1  3  1  0
  2  4  1  0
  3 10  2  0
  4 12  2  0
  5  8  2  0
  5  9  1  0
  6  8  1  0
  6 11  2  0
  7  9  2  0
  7 11  1  0
  8 13  1  0
  9 14  1  0
 10 12  1  0
 10 19  1  0
 11 20  1  0
 12 24  1  0
 13 21  2  0
 13 25  1  0
 14 22  2  0
 14 26  1  0
 15 19  1  0
 15 20  1  0
 15 23  2  0
 16 24  1  0
 17 25  1  0
 18 26  1  0
M  END
>  <washed_aromatic_smiles>  (319) 
COc1ccccc1NC(=O)Nc2cc(cc(c2)C(=O)OC)C(=O)OC

>  <name>  (319) 
neg239120

$$$$
neg79512
     RDKit          3D

 34 36  0  0  0  0  0  0  0  0999 V2000
    5.5180   13.1220   57.6680 C   0  0  0  0  0  0  0  0  0  0  0  0
    5.8560   12.5150   58.8740 C   0  0  0  0  0  0  0  0  0  0  0  0
    3.2860    9.3180   53.4090 C   0  0  0  0  0  0  0  0  0  0  0  0
    1.4820    8.0520   54.3560 C   0  0  0  0  0  0  0  0  0  0  0  0
    0.9120    2.3440   48.1400 C   0  0  0  0  0  0  0  0  0  0  0  0
    4.8870   12.3860   56.6710 C   0  0  0  0  0  0  0  0  0  0  0  0
    3.2030    8.5720   52.2650 C   0  0  0  0  0  0  0  0  0  0  0  0
    1.4390    7.2440   53.2260 C   0  0  0  0  0  0  0  0  0  0  0  0
    5.5990   11.1590   59.0690 C   0  0  0  0  0  0  0  0  0  0  0  0
    0.2100    1.2030   47.8010 C   0  0  0  0  0  0  0  0  0  0  0  0
    1.8930    1.1940   50.0370 C   0  0  0  0  0  0  0  0  0  0  0  0
    2.5250    8.9770   54.5310 C   0  0  0  0  0  0  0  0  0  0  0  0
    1.6960    2.3550   49.3040 C   0  0  0  0  0  0  0  0  0  0  0  0
    2.3850    7.4410   52.2210 C   0  0  0  0  0  0  0  0  0  0  0  0
    4.6060   11.0370   56.8870 C   0  0  0  0  0  0  0  0  0  0  0  0
    4.9880   10.4090   58.0730 C   0  0  0  0  0  0  0  0  0  0  0  0
    0.2930    0.0960   48.6390 C   0  0  0  0  0  0  0  0  0  0  0  0
    1.2130    0.0490   49.6880 C   0  0  0  0  0  0  0  0  0  0  0  0
    2.8790    9.5460   55.8280 C   0  0  0  0  0  0  0  0  0  0  0  0
    2.3300    3.5370   49.8000 C   0  0  0  0  0  0  0  0  0  0  0  0
    3.2110    6.5950   50.0160 C   0  0  0  0  0  0  0  0  0  0  0  0
    5.5810    8.1980   59.0940 C   0  0  0  0  0  0  0  0  0  0  0  0
   -2.0060   -0.5220   48.6200 C   0  0  0  0  0  0  0  0  0  0  0  0
    2.2840   -1.1360   51.5840 C   0  0  0  0  0  0  0  0  0  0  0  0
    3.5840    5.4590   49.1290 C   0  0  0  0  0  0  0  0  0  0  0  0
    4.0270   10.3220   55.8340 N   0  0  0  0  0  0  0  0  0  0  0  0
    2.5500    6.4460   51.2220 N   0  0  0  0  0  0  0  0  0  0  0  0
    2.5370    4.5250   48.9070 N   0  0  0  0  0  0  0  0  0  0  0  0
    2.2520    9.3650   56.8670 O   0  0  0  0  0  0  0  0  0  0  0  0
    2.7150    3.6520   50.9620 O   0  0  0  0  0  0  0  0  0  0  0  0
    3.4510    7.6790   49.5860 O   0  0  0  0  0  0  0  0  0  0  0  0
    4.8120    9.0380   58.2080 O   0  0  0  0  0  0  0  0  0  0  0  0
   -0.6060   -0.8870   48.4920 O   0  0  0  0  0  0  0  0  0  0  0  0
    1.4750   -1.1110   50.3700 O   0  0  0  0  0  0  0  0  0  0  0  0
  1  2  2  0
  1  6  1  0
  2  9  1  0
  3  7  2  0
  3 12  1  0
  4  8  1  0
  4 12  2  0
  5 10  2  0
  5 13  1  0
  6 15  2  0
  7 14  1  0
  8 14  2  0
  9 16  2  0
 10 17  1  0
 11 13  2  0
 11 18  1  0
 12 19  1  0
 13 20  1  0
 14 27  1  0
 15 16  1  0
 15 26  1  0
 16 32  1  0
 17 18  2  0
 17 33  1  0
 18 34  1  0
 19 26  1  0
 19 29  2  0
 20 28  1  0
 20 30  2  0
 21 25  1  0
 21 27  1  0
 21 31  2  0
 22 32  1  0
 23 33  1  0
 24 34  1  0
 25 28  1  0
M  END
>  <washed_aromatic_smiles>  (320) 
COc1ccccc1NC(=O)c2ccc(cc2)NC(=O)CNC(=O)c3ccc(c(c3)OC)OC

>  <name>  (320) 
neg79512

$$$$
neg145873
     RDKit          3D

 28 30  0  0  0  0  0  0  0  0999 V2000
    5.1120   11.4720   58.4650 C   0  0  0  0  0  0  0  0  0  0  0  0
    5.5800   12.6300   57.8460 C   0  0  0  0  0  0  0  0  0  0  0  0
    3.3690    7.3430   53.8530 C   0  0  0  0  0  0  0  0  0  0  0  0
    1.0610    8.0360   54.0050 C   0  0  0  0  0  0  0  0  0  0  0  0
    4.5650   10.4390   57.7090 C   0  0  0  0  0  0  0  0  0  0  0  0
    3.0640    6.5190   52.7890 C   0  0  0  0  0  0  0  0  0  0  0  0
    0.7540    7.2490   52.9000 C   0  0  0  0  0  0  0  0  0  0  0  0
    5.5140   12.7590   56.4620 C   0  0  0  0  0  0  0  0  0  0  0  0
   -0.1410   -0.0490   48.5400 C   0  0  0  0  0  0  0  0  0  0  0  0
    0.6860    0.1230   49.6400 C   0  0  0  0  0  0  0  0  0  0  0  0
   -0.0640    0.8650   47.5010 C   0  0  0  0  0  0  0  0  0  0  0  0
    2.3790    8.1080   54.4850 C   0  0  0  0  0  0  0  0  0  0  0  0
    1.7640    6.5060   52.2820 C   0  0  0  0  0  0  0  0  0  0  0  0
    4.5030   10.5740   56.3220 C   0  0  0  0  0  0  0  0  0  0  0  0
    4.9810   11.7280   55.6980 C   0  0  0  0  0  0  0  0  0  0  0  0
    1.5770    1.9760   48.6340 C   0  0  0  0  0  0  0  0  0  0  0  0
    2.7570    8.9590   55.6040 C   0  0  0  0  0  0  0  0  0  0  0  0
    2.2860    5.5080   50.0680 C   0  0  0  0  0  0  0  0  0  0  0  0
    5.2510   12.9210   53.4930 C   0  0  0  0  0  0  0  0  0  0  0  0
    1.7260    4.6830   48.9440 C   0  0  0  0  0  0  0  0  0  0  0  0
    1.5380    1.1300   49.6810 N   0  0  0  0  0  0  0  0  0  0  0  0
    0.7770    1.8770   47.5580 N   0  0  0  0  0  0  0  0  0  0  0  0
    3.9900    9.5580   55.4950 N   0  0  0  0  0  0  0  0  0  0  0  0
    1.4440    5.7440   51.1400 N   0  0  0  0  0  0  0  0  0  0  0  0
    2.0610    9.1750   56.5910 O   0  0  0  0  0  0  0  0  0  0  0  0
    3.4110    5.9690   50.0090 O   0  0  0  0  0  0  0  0  0  0  0  0
    4.8900   11.8060   54.3180 O   0  0  0  0  0  0  0  0  0  0  0  0
    2.7570    3.2330   48.6390 S   0  0  0  0  0  0  0  0  0  0  0  0
  1  2  2  0
  1  5  1  0
  2  8  1  0
  3  6  2  0
  3 12  1  0
  4  7  1  0
  4 12  2  0
  5 14  2  0
  6 13  1  0
  7 13  2  0
  8 15  2  0
  9 10  2  0
  9 11  1  0
 10 21  1  0
 11 22  2  0
 12 17  1  0
 13 24  1  0
 14 15  1  0
 14 23  1  0
 15 27  1  0
 16 21  2  0
 16 22  1  0
 16 28  1  0
 17 23  1  0
 17 25  2  0
 18 20  1  0
 18 24  1  0
 18 26  2  0
 19 27  1  0
 20 28  1  0
M  END
>  <washed_aromatic_smiles>  (321) 
COc1ccccc1NC(=O)c2ccc(cc2)NC(=O)CSc3ncccn3

>  <name>  (321) 
neg145873

$$$$
neg99667
     RDKit          3D

 30 33  0  0  0  0  0  0  0  0999 V2000
    5.4530   11.8100   58.5520 C   0  0  0  0  0  0  0  0  0  0  0  0
    0.9540    3.4980   48.4710 C   0  0  0  0  0  0  0  0  0  0  0  0
    5.7210   12.9030   57.7260 C   0  0  0  0  0  0  0  0  0  0  0  0
    2.0360    3.3240   47.6510 C   0  0  0  0  0  0  0  0  0  0  0  0
    0.9910    8.4320   54.7180 C   0  0  0  0  0  0  0  0  0  0  0  0
    0.7290    7.7400   53.5590 C   0  0  0  0  0  0  0  0  0  0  0  0
    5.0330   10.6010   58.0030 C   0  0  0  0  0  0  0  0  0  0  0  0
    0.9410    4.5740   49.3450 C   0  0  0  0  0  0  0  0  0  0  0  0
    5.5750   12.7930   56.3450 C   0  0  0  0  0  0  0  0  0  0  0  0
    3.1350    4.1580   47.7770 C   0  0  0  0  0  0  0  0  0  0  0  0
    3.0980    7.2780   53.2700 C   0  0  0  0  0  0  0  0  0  0  0  0
    2.3180    8.5860   55.1030 C   0  0  0  0  0  0  0  0  0  0  0  0
    3.3690    8.1030   54.3530 C   0  0  0  0  0  0  0  0  0  0  0  0
    1.7650    7.0970   52.8780 C   0  0  0  0  0  0  0  0  0  0  0  0
    4.8600   10.5040   56.6230 C   0  0  0  0  0  0  0  0  0  0  0  0
    2.0540    5.3040   49.5920 C   0  0  0  0  0  0  0  0  0  0  0  0
    5.1490   11.5900   55.7890 C   0  0  0  0  0  0  0  0  0  0  0  0
    3.0570    5.2320   48.6650 C   0  0  0  0  0  0  0  0  0  0  0  0
    2.8620    9.2100   56.2580 C   0  0  0  0  0  0  0  0  0  0  0  0
    4.5950    8.5990   54.9480 C   0  0  0  0  0  0  0  0  0  0  0  0
    1.3920    6.1820   51.8380 C   0  0  0  0  0  0  0  0  0  0  0  0
    5.1300   12.4940   53.4480 C   0  0  0  0  0  0  0  0  0  0  0  0
    4.8830    5.6170   49.5470 C   0  0  0  0  0  0  0  0  0  0  0  0
    4.2250    9.3550   56.0730 N   0  0  0  0  0  0  0  0  0  0  0  0
    2.1710    6.1630   50.7170 N   0  0  0  0  0  0  0  0  0  0  0  0
    2.2860    9.5060   57.2760 O   0  0  0  0  0  0  0  0  0  0  0  0
    5.7560    8.4700   54.5820 O   0  0  0  0  0  0  0  0  0  0  0  0
    0.4240    5.4520   51.9620 O   0  0  0  0  0  0  0  0  0  0  0  0
    4.9590   11.4580   54.4260 O   0  0  0  0  0  0  0  0  0  0  0  0
    3.9560    6.2200   48.7350 O   0  0  0  0  0  0  0  0  0  0  0  0
  1  3  2  0
  1  7  1  0
  2  4  2  0
  2  8  1  0
  3  9  1  0
  4 10  1  0
  5  6  2  0
  5 12  1  0
  6 14  1  0
  7 15  2  0
  8 16  2  0
  9 17  2  0
 10 18  2  0
 11 13  1  0
 11 14  2  0
 12 13  2  0
 12 19  1  0
 13 20  1  0
 14 21  1  0
 15 17  1  0
 15 24  1  0
 16 18  1  0
 16 25  1  0
 17 29  1  0
 18 30  1  0
 19 24  1  0
 19 26  2  0
 20 24  1  0
 20 27  2  0
 21 25  1  0
 21 28  2  0
 22 29  1  0
 23 30  1  0
M  END
>  <washed_aromatic_smiles>  (322) 
COc1ccccc1NC(=O)c2ccc3c(c2)C(=O)N(C3=O)c4ccccc4OC

>  <name>  (322) 
neg99667

$$$$
neg108370
     RDKit          3D

 29 31  0  0  0  0  0  0  0  0999 V2000
    3.0370    0.4130   54.2280 C   0  0  0  0  0  0  0  0  0  0  0  0
    2.8790   -0.8710   53.7460 C   0  0  0  0  0  0  0  0  0  0  0  0
    3.5480    6.4680   48.7750 C   0  0  0  0  0  0  0  0  0  0  0  0
    3.5200    5.1260   48.4410 C   0  0  0  0  0  0  0  0  0  0  0  0
    1.8670    9.0370   56.1280 C   0  0  0  0  0  0  0  0  0  0  0  0
    3.0620    9.6430   56.4940 C   0  0  0  0  0  0  0  0  0  0  0  0
    2.6860    1.4790   53.4260 C   0  0  0  0  0  0  0  0  0  0  0  0
    2.2880   -1.0950   52.5140 C   0  0  0  0  0  0  0  0  0  0  0  0
    3.3270    6.8770   50.0720 C   0  0  0  0  0  0  0  0  0  0  0  0
    3.1820    4.2060   49.3900 C   0  0  0  0  0  0  0  0  0  0  0  0
    1.7110    8.4520   54.8690 C   0  0  0  0  0  0  0  0  0  0  0  0
    4.1240    9.6630   55.6010 C   0  0  0  0  0  0  0  0  0  0  0  0
    2.1460    1.2820   52.1460 C   0  0  0  0  0  0  0  0  0  0  0  0
    1.8320   -0.0300   51.7350 C   0  0  0  0  0  0  0  0  0  0  0  0
    3.0590    5.9690   51.0860 C   0  0  0  0  0  0  0  0  0  0  0  0
    2.9180    4.6180   50.6980 C   0  0  0  0  0  0  0  0  0  0  0  0
    2.7860    8.4240   53.9870 C   0  0  0  0  0  0  0  0  0  0  0  0
    3.9920    9.0430   54.3570 C   0  0  0  0  0  0  0  0  0  0  0  0
    1.9690    2.4280   51.2580 C   0  0  0  0  0  0  0  0  0  0  0  0
    3.0860    6.4700   52.4580 C   0  0  0  0  0  0  0  0  0  0  0  0
    1.0180   -0.3170   50.5580 C   0  0  0  0  0  0  0  0  0  0  0  0
    6.4040    8.9590   53.9660 C   0  0  0  0  0  0  0  0  0  0  0  0
    2.5920    3.6180   51.6110 N   0  0  0  0  0  0  0  0  0  0  0  0
    2.6190    7.7550   52.7320 N   0  0  0  0  0  0  0  0  0  0  0  0
    1.3010    2.4130   50.2340 O   0  0  0  0  0  0  0  0  0  0  0  0
    3.6160    5.8520   53.3660 O   0  0  0  0  0  0  0  0  0  0  0  0
    1.4760   -1.0670   49.6620 O   0  0  0  0  0  0  0  0  0  0  0  0
   -0.1520    0.1480   50.4870 O   0  0  0  0  0  0  0  0  0  0  0  0
    5.0490    9.0470   53.4930 O   0  0  0  0  0  0  0  0  0  0  0  0
  1  2  2  0
  1  7  1  0
  2  8  1  0
  3  4  2  0
  3  9  1  0
  4 10  1  0
  5  6  2  0
  5 11  1  0
  6 12  1  0
  7 13  2  0
  8 14  2  0
  9 15  2  0
 10 16  2  0
 11 17  2  0
 12 18  2  0
 13 14  1  0
 13 19  1  0
 14 21  1  0
 15 16  1  0
 15 20  1  0
 16 23  1  0
 17 18  1  0
 17 24  1  0
 18 29  1  0
 19 23  1  0
 19 25  2  0
 20 24  1  0
 20 26  2  0
 21 27  1  0
 21 28  2  0
 22 29  1  0
M  CHG  1  27  -1
M  END
>  <washed_aromatic_smiles>  (323) 
COc1ccccc1NC(=O)c2ccccc2NC(=O)c3ccccc3C(=O)O

>  <name>  (323) 
neg108370

$$$$
neg14704
     RDKit          3D

 27 29  0  0  0  0  0  0  0  0999 V2000
    2.9340    4.0080   52.4820 C   0  0  0  0  0  0  0  0  0  0  0  0
    2.3110    3.6580   51.2980 C   0  0  0  0  0  0  0  0  0  0  0  0
   -4.3370    7.7880   60.2000 C   0  0  0  0  0  0  0  0  0  0  0  0
   -3.7810    8.1850   61.4040 C   0  0  0  0  0  0  0  0  0  0  0  0
    3.3200    5.3230   52.7630 C   0  0  0  0  0  0  0  0  0  0  0  0
    0.3070    8.5300   55.4550 C   0  0  0  0  0  0  0  0  0  0  0  0
    2.0540    9.1530   56.9850 C   0  0  0  0  0  0  0  0  0  0  0  0
    2.1920    4.6290   50.3300 C   0  0  0  0  0  0  0  0  0  0  0  0
    1.2130    8.4500   54.4180 C   0  0  0  0  0  0  0  0  0  0  0  0
    2.9610    9.0710   55.9390 C   0  0  0  0  0  0  0  0  0  0  0  0
   -3.5020    7.6370   59.1010 C   0  0  0  0  0  0  0  0  0  0  0  0
   -2.4130    8.4080   61.4760 C   0  0  0  0  0  0  0  0  0  0  0  0
    0.6990    8.8750   56.7610 C   0  0  0  0  0  0  0  0  0  0  0  0
    3.0340    6.3660   51.8710 C   0  0  0  0  0  0  0  0  0  0  0  0
    2.7310    5.8890   50.5700 C   0  0  0  0  0  0  0  0  0  0  0  0
    2.5490    8.7120   54.6560 C   0  0  0  0  0  0  0  0  0  0  0  0
   -2.1380    7.9440   59.2150 C   0  0  0  0  0  0  0  0  0  0  0  0
   -1.2640    7.8900   58.0420 C   0  0  0  0  0  0  0  0  0  0  0  0
    3.2820    5.9760   48.2570 C   0  0  0  0  0  0  0  0  0  0  0  0
   -1.6310    8.2980   60.4050 N   0  0  0  0  0  0  0  0  0  0  0  0
   -0.2310    8.8190   57.8580 N   0  0  0  0  0  0  0  0  0  0  0  0
    3.0850    7.6870   52.1790 N   0  0  0  0  0  0  0  0  0  0  0  0
   -1.4180    7.0230   57.2060 O   0  0  0  0  0  0  0  0  0  0  0  0
    4.8740    7.8860   53.9670 O   0  0  0  0  0  0  0  0  0  0  0  0
    4.0170    9.9040   52.9160 O   0  0  0  0  0  0  0  0  0  0  0  0
    3.2650    6.5970   49.5330 O   0  0  0  0  0  0  0  0  0  0  0  0
    3.7600    8.5720   53.3800 S   0  0  2  0  0  0  0  0  0  0  0  0
  1  2  2  0
  1  5  1  0
  2  8  1  0
  3  4  2  0
  3 11  1  0
  4 12  1  0
  5 14  2  0
  6  9  2  0
  6 13  1  0
  7 10  1  0
  7 13  2  0
  8 15  2  0
  9 16  1  0
 10 16  2  0
 11 17  2  0
 12 20  2  0
 13 21  1  0
 14 15  1  0
 14 22  1  0
 15 26  1  0
 16 27  1  0
 17 18  1  0
 17 20  1  0
 18 21  1  0
 18 23  2  0
 19 26  1  0
 22 27  2  0
 24 27  2  0
 27 25  1  6
M  CHG  1  25  -1
M  END
>  <washed_aromatic_smiles>  (324) 
COc1ccccc1NS(=O)(=O)c2ccc(cc2)NC(=O)c3ccccn3

>  <name>  (324) 
neg14704

$$$$
neg214657
     RDKit          3D

 30 33  0  0  0  0  0  0  0  0999 V2000
    0.1090    8.2710   53.1000 C   0  0  0  0  0  0  0  0  0  0  0  0
   -0.3750    7.3390   52.1670 C   0  0  0  0  0  0  0  0  0  0  0  0
    3.7190    1.0010   51.4080 C   0  0  0  0  0  0  0  0  0  0  0  0
    5.3410   10.3920   57.6540 C   0  0  0  0  0  0  0  0  0  0  0  0
    2.9190    0.0030   51.9480 C   0  0  0  0  0  0  0  0  0  0  0  0
    5.3290   11.7390   57.3050 C   0  0  0  0  0  0  0  0  0  0  0  0
    1.4260    8.2310   53.4240 C   0  0  0  0  0  0  0  0  0  0  0  0
    0.3910    6.4790   51.4910 C   0  0  0  0  0  0  0  0  0  0  0  0
    3.1450    2.2160   51.0440 C   0  0  0  0  0  0  0  0  0  0  0  0
    5.2650    9.4100   56.6710 C   0  0  0  0  0  0  0  0  0  0  0  0
    1.5530    0.2160   52.0540 C   0  0  0  0  0  0  0  0  0  0  0  0
    5.2520   12.1120   55.9670 C   0  0  0  0  0  0  0  0  0  0  0  0
    4.0320    5.7340   52.9150 C   0  0  0  0  0  0  0  0  0  0  0  0
    2.1960    7.1750   52.9030 C   0  0  0  0  0  0  0  0  0  0  0  0
    1.6260    6.2500   51.9910 C   0  0  0  0  0  0  0  0  0  0  0  0
    3.4810    6.9050   53.3760 C   0  0  0  0  0  0  0  0  0  0  0  0
    1.8200    2.4840   51.2100 C   0  0  0  0  0  0  0  0  0  0  0  0
    5.0980    9.7730   55.3250 C   0  0  0  0  0  0  0  0  0  0  0  0
    0.9970    1.4110   51.5980 C   0  0  0  0  0  0  0  0  0  0  0  0
    5.1330   11.1310   54.9770 C   0  0  0  0  0  0  0  0  0  0  0  0
    2.1740    4.9860   51.7550 C   0  0  0  0  0  0  0  0  0  0  0  0
    4.0150    7.6930   54.4750 C   0  0  0  0  0  0  0  0  0  0  0  0
   -0.7340    0.5940   50.3790 C   0  0  0  0  0  0  0  0  0  0  0  0
    4.6990   12.8030   53.2240 C   0  0  0  0  0  0  0  0  0  0  0  0
    3.3330    4.8000   52.2500 N   0  0  0  0  0  0  0  0  0  0  0  0
    1.4720    3.9070   51.0700 N   0  0  0  0  0  0  0  0  0  0  0  0
    4.8370    8.7970   54.2910 N   0  0  0  0  0  0  0  0  0  0  0  0
    3.6720    7.4310   55.6170 O   0  0  0  0  0  0  0  0  0  0  0  0
   -0.3480    1.4430   51.4750 O   0  0  0  0  0  0  0  0  0  0  0  0
    5.0250   11.4700   53.6420 O   0  0  0  0  0  0  0  0  0  0  0  0
  1  2  2  0
  1  7  1  0
  2  8  1  0
  3  5  2  0
  3  9  1  0
  4  6  2  0
  4 10  1  0
  5 11  1  0
  6 12  1  0
  7 14  2  0
  8 15  2  0
  9 17  2  0
 10 18  2  0
 11 19  2  0
 12 20  2  0
 13 16  2  0
 13 25  1  0
 14 15  1  0
 14 16  1  0
 15 21  1  0
 16 22  1  0
 17 19  1  0
 17 26  1  0
 18 20  1  0
 18 27  1  0
 19 29  1  0
 20 30  1  0
 21 25  2  0
 21 26  1  0
 22 27  1  0
 22 28  2  0
 23 29  1  0
 24 30  1  0
M  END
>  <washed_aromatic_smiles>  (325) 
COc1ccccc1Nc2c3ccccc3c(cn2)C(=O)Nc4ccccc4OC

>  <name>  (325) 
neg214657

$$$$
neg223510
     RDKit          3D

 27 29  0  0  0  0  0  0  0  0999 V2000
    2.9450    6.4250   51.0440 C   0  0  0  0  0  0  0  0  0  0  0  0
    1.8740    5.7650   51.6180 C   0  0  0  0  0  0  0  0  0  0  0  0
    3.4560    6.0070   49.8130 C   0  0  0  0  0  0  0  0  0  0  0  0
    4.4990    0.1950   56.5070 C   0  0  0  0  0  0  0  0  0  0  0  0
    3.6660    1.3040   56.4210 C   0  0  0  0  0  0  0  0  0  0  0  0
    1.2600    4.7410   50.9250 C   0  0  0  0  0  0  0  0  0  0  0  0
    2.8350    4.9930   49.1030 C   0  0  0  0  0  0  0  0  0  0  0  0
    4.3100   -0.8790   55.6430 C   0  0  0  0  0  0  0  0  0  0  0  0
    2.5960    1.3000   55.5300 C   0  0  0  0  0  0  0  0  0  0  0  0
    0.4360    2.1010   47.1440 C   0  0  0  0  0  0  0  0  0  0  0  0
    0.6130    0.8380   46.6030 C   0  0  0  0  0  0  0  0  0  0  0  0
    1.1570   -0.0030   48.8040 C   0  0  0  0  0  0  0  0  0  0  0  0
    1.0930    1.2830   49.3060 C   0  0  0  0  0  0  0  0  0  0  0  0
    1.6950    4.4170   49.6400 C   0  0  0  0  0  0  0  0  0  0  0  0
    0.8290    2.3520   48.4510 C   0  0  0  0  0  0  0  0  0  0  0  0
    3.2910   -0.8270   54.6810 C   0  0  0  0  0  0  0  0  0  0  0  0
    2.3740    0.1880   54.7160 C   0  0  0  0  0  0  0  0  0  0  0  0
    1.0870   -0.1750   47.4330 C   0  0  0  0  0  0  0  0  0  0  0  0
    0.5920    0.6970   51.5830 C   0  0  0  0  0  0  0  0  0  0  0  0
    3.0090   -1.1420   52.2060 C   0  0  0  0  0  0  0  0  0  0  0  0
    0.9670    0.9480   53.0010 C   0  0  0  0  0  0  0  0  0  0  0  0
    1.2930    1.4390   50.6750 N   0  0  0  0  0  0  0  0  0  0  0  0
   -0.3850    0.0650   51.2470 O   0  0  0  0  0  0  0  0  0  0  0  0
    0.9180    3.6730   48.8060 O   0  0  0  0  0  0  0  0  0  0  0  0
    3.1430   -1.6900   53.6000 O   0  0  0  0  0  0  0  0  0  0  0  0
    1.2560   -0.0410   53.9310 O   0  0  0  0  0  0  0  0  0  0  0  0
    1.7900   -1.5900   46.7980 Cl  0  0  0  0  0  0  0  0  0  0  0  0
  1  2  2  0
  1  3  1  0
  2  6  1  0
  3  7  2  0
  4  5  2  0
  4  8  1  0
  5  9  1  0
  6 14  2  0
  7 14  1  0
  8 16  2  0
  9 17  2  0
 10 11  2  0
 10 15  1  0
 11 18  1  0
 12 13  1  0
 12 18  2  0
 13 15  2  0
 13 22  1  0
 14 24  1  0
 15 24  1  0
 16 17  1  0
 16 25  1  0
 17 26  1  0
 18 27  1  0
 19 21  1  0
 19 22  1  0
 19 23  2  0
 20 25  1  0
 21 26  1  0
M  END
>  <washed_aromatic_smiles>  (326) 
COc1ccccc1OCC(=O)Nc2cc(ccc2Oc3ccccc3)Cl

>  <name>  (326) 
neg223510

$$$$
neg259130
     RDKit          3D

 29 30  0  0  0  0  0  0  0  0999 V2000
    5.6660   12.5830   57.7270 C   0  0  0  0  0  0  0  0  0  0  0  0
    5.0280   11.5310   58.3810 C   0  0  0  0  0  0  0  0  0  0  0  0
    3.3620    6.1280   52.3570 C   0  0  0  0  0  0  0  0  0  0  0  0
    1.0300    6.7030   52.1890 C   0  0  0  0  0  0  0  0  0  0  0  0
    5.6510   12.6550   56.3370 C   0  0  0  0  0  0  0  0  0  0  0  0
    4.3470   10.5590   57.6530 C   0  0  0  0  0  0  0  0  0  0  0  0
    3.2760    5.4640   51.1500 C   0  0  0  0  0  0  0  0  0  0  0  0
    0.9530    5.9370   51.0240 C   0  0  0  0  0  0  0  0  0  0  0  0
    2.2550    6.7880   52.8590 C   0  0  0  0  0  0  0  0  0  0  0  0
    4.9700   11.6870   55.6060 C   0  0  0  0  0  0  0  0  0  0  0  0
    4.3130   10.6480   56.2630 C   0  0  0  0  0  0  0  0  0  0  0  0
    2.0670    5.2630   50.5200 C   0  0  0  0  0  0  0  0  0  0  0  0
   -0.4930    0.7270   50.6730 C   0  0  0  0  0  0  0  0  0  0  0  0
    2.6410   -0.2670   51.6450 C   0  0  0  0  0  0  0  0  0  0  0  0
    0.1280    0.6090   49.4900 C   0  0  0  0  0  0  0  0  0  0  0  0
    2.2760    1.0220   51.6280 C   0  0  0  0  0  0  0  0  0  0  0  0
    1.7540    8.3430   54.7860 C   0  0  0  0  0  0  0  0  0  0  0  0
    5.2290   12.8590   53.4160 C   0  0  0  0  0  0  0  0  0  0  0  0
    0.9650    1.6960   48.8360 C   0  0  0  0  0  0  0  0  0  0  0  0
    2.6970    1.9820   50.5370 C   0  0  0  0  0  0  0  0  0  0  0  0
    2.5000    8.9780   55.9440 C   0  0  0  0  0  0  0  0  0  0  0  0
    2.5430    7.5410   54.0150 N   0  0  0  0  0  0  0  0  0  0  0  0
    1.6510    2.6530   49.7310 N   0  0  0  0  0  0  0  0  0  0  0  0
    0.5660    8.4830   54.5730 O   0  0  0  0  0  0  0  0  0  0  0  0
    1.0500    4.6080   48.2020 O   0  0  0  0  0  0  0  0  0  0  0  0
    3.3680    4.0940   48.5480 O   0  0  0  0  0  0  0  0  0  0  0  0
    4.9010   11.7250   54.2290 O   0  0  0  0  0  0  0  0  0  0  0  0
    3.6290    9.7400   55.4910 O   0  0  0  0  0  0  0  0  0  0  0  0
    2.0530    4.1620   49.0950 S   0  0  0  0  0  0  0  0  0  0  0  0
  1  2  2  0
  1  5  1  0
  2  6  1  0
  3  7  2  0
  3  9  1  0
  4  8  1  0
  4  9  2  0
  5 10  2  0
  6 11  2  0
  7 12  1  0
  8 12  2  0
  9 22  1  0
 10 11  1  0
 10 27  1  0
 11 28  1  0
 12 29  1  0
 13 15  2  0
 14 16  2  0
 15 19  1  0
 16 20  1  0
 17 21  1  0
 17 22  1  0
 17 24  2  0
 18 27  1  0
 19 23  1  0
 20 23  1  0
 21 28  1  0
 23 29  1  0
 25 29  2  0
 26 29  2  0
M  END
>  <washed_aromatic_smiles>  (327) 
COc1ccccc1OCC(=O)Nc2ccc(cc2)S(=O)(=O)N(CC=C)CC=C

>  <name>  (327) 
neg259130

$$$$
neg63289
     RDKit          3D

 28 30  0  0  0  0  0  0  0  0999 V2000
   -0.0360    0.6790   47.7870 C   0  0  0  0  0  0  0  0  0  0  0  0
    0.3540    1.8980   47.2420 C   0  0  0  0  0  0  0  0  0  0  0  0
    3.4960    6.6820   53.2870 C   0  0  0  0  0  0  0  0  0  0  0  0
    1.7870    8.2290   52.5700 C   0  0  0  0  0  0  0  0  0  0  0  0
    0.5190    0.2180   48.9760 C   0  0  0  0  0  0  0  0  0  0  0  0
    1.2840    2.6900   47.9070 C   0  0  0  0  0  0  0  0  0  0  0  0
    4.2720    7.7490   53.6930 C   0  0  0  0  0  0  0  0  0  0  0  0
    2.6120    9.2890   52.9340 C   0  0  0  0  0  0  0  0  0  0  0  0
    2.2830    6.9360   52.6660 C   0  0  0  0  0  0  0  0  0  0  0  0
    1.4550    0.9990   49.6430 C   0  0  0  0  0  0  0  0  0  0  0  0
    1.8190    2.2450   49.1110 C   0  0  0  0  0  0  0  0  0  0  0  0
    3.8680    9.0580   53.4990 C   0  0  0  0  0  0  0  0  0  0  0  0
    2.3580    5.1830   51.0410 C   0  0  0  0  0  0  0  0  0  0  0  0
    5.7270    8.9680   56.2730 C   0  0  0  0  0  0  0  0  0  0  0  0
    3.7650   10.4170   56.3750 C   0  0  0  0  0  0  0  0  0  0  0  0
    4.8080    7.9440   56.9260 C   0  0  0  0  0  0  0  0  0  0  0  0
    3.5340    9.7630   57.7470 C   0  0  0  0  0  0  0  0  0  0  0  0
    3.3530    0.5330   51.2230 C   0  0  0  0  0  0  0  0  0  0  0  0
    2.0830    3.7110   50.9370 C   0  0  0  0  0  0  0  0  0  0  0  0
    5.0260   10.1280   55.6850 N   0  0  0  0  0  0  0  0  0  0  0  0
    1.6670    5.8580   52.0230 N   0  0  0  0  0  0  0  0  0  0  0  0
    3.2350    5.7350   50.3990 O   0  0  0  0  0  0  0  0  0  0  0  0
    6.3210    9.9990   53.5080 O   0  0  0  0  0  0  0  0  0  0  0  0
    4.5210   11.6050   53.6780 O   0  0  0  0  0  0  0  0  0  0  0  0
    4.2390    8.5600   58.0470 O   0  0  0  0  0  0  0  0  0  0  0  0
    1.9620    0.4890   50.8270 O   0  0  0  0  0  0  0  0  0  0  0  0
    2.6480    3.0940   49.7720 O   0  0  0  0  0  0  0  0  0  0  0  0
    5.0300   10.3200   54.0240 S   0  0  0  0  0  0  0  0  0  0  0  0
  1  2  2  0
  1  5  1  0
  2  6  1  0
  3  7  2  0
  3  9  1  0
  4  8  1  0
  4  9  2  0
  5 10  2  0
  6 11  2  0
  7 12  1  0
  8 12  2  0
  9 21  1  0
 10 11  1  0
 10 26  1  0
 11 27  1  0
 12 28  1  0
 13 19  1  0
 13 21  1  0
 13 22  2  0
 14 16  1  0
 14 20  1  0
 15 17  1  0
 15 20  1  0
 16 25  1  0
 17 25  1  0
 18 26  1  0
 19 27  1  0
 20 28  1  0
 23 28  2  0
 24 28  2  0
M  END
>  <washed_aromatic_smiles>  (328) 
COc1ccccc1OCC(=O)Nc2ccc(cc2)S(=O)(=O)N3CCOCC3

>  <name>  (328) 
neg63289

$$$$
neg174432
     RDKit          3D

 29 32  0  0  0  0  0  0  0  0999 V2000
   -0.0170    1.6700   46.6360 C   0  0  0  0  0  0  0  0  0  0  0  0
    1.1330    2.0610   47.2920 C   0  0  0  0  0  0  0  0  0  0  0  0
    3.2690    5.6010   49.1500 C   0  0  0  0  0  0  0  0  0  0  0  0
    5.3440   11.5590   54.9340 C   0  0  0  0  0  0  0  0  0  0  0  0
    3.1480    6.5390   50.1680 C   0  0  0  0  0  0  0  0  0  0  0  0
    3.0910    4.2520   49.4150 C   0  0  0  0  0  0  0  0  0  0  0  0
   -0.8240    0.7060   47.2180 C   0  0  0  0  0  0  0  0  0  0  0  0
    1.5670    1.3520   48.4060 C   0  0  0  0  0  0  0  0  0  0  0  0
    4.4630   10.5060   55.1790 C   0  0  0  0  0  0  0  0  0  0  0  0
    2.6240    4.7970   51.7210 C   0  0  0  0  0  0  0  0  0  0  0  0
    5.5630   11.5910   53.5990 C   0  0  0  0  0  0  0  0  0  0  0  0
    2.7890    6.1630   51.4680 C   0  0  0  0  0  0  0  0  0  0  0  0
    2.8010    3.8520   50.7210 C   0  0  0  0  0  0  0  0  0  0  0  0
   -0.4880    0.1740   48.4360 C   0  0  0  0  0  0  0  0  0  0  0  0
    0.7770    0.3530   48.9610 C   0  0  0  0  0  0  0  0  0  0  0  0
    4.1640    9.9350   53.9750 C   0  0  0  0  0  0  0  0  0  0  0  0
    2.6950    7.1510   52.5420 C   0  0  0  0  0  0  0  0  0  0  0  0
    3.3150    8.8090   53.6540 C   0  0  0  0  0  0  0  0  0  0  0  0
    1.7820    1.6310   51.2400 C   0  0  0  0  0  0  0  0  0  0  0  0
   -2.9120   -0.6530   49.1610 C   0  0  0  0  0  0  0  0  0  0  0  0
    2.0260    0.1500   51.1080 C   0  0  0  0  0  0  0  0  0  0  0  0
    2.1100    7.0650   53.6920 N   0  0  0  0  0  0  0  0  0  0  0  0
    2.5170    8.1390   54.4210 N   0  0  0  0  0  0  0  0  0  0  0  0
    2.8560    2.4730   51.0740 N   0  0  0  0  0  0  0  0  0  0  0  0
    0.6540    2.0550   51.2950 O   0  0  0  0  0  0  0  0  0  0  0  0
    4.8580   10.6060   53.0000 O   0  0  0  0  0  0  0  0  0  0  0  0
    3.3560    8.2760   52.4650 O   0  0  0  0  0  0  0  0  0  0  0  0
   -1.5090   -0.2290   49.2250 O   0  0  0  0  0  0  0  0  0  0  0  0
    1.1920   -0.4090   50.0530 O   0  0  0  0  0  0  0  0  0  0  0  0
  1  2  2  0
  1  7  1  0
  2  8  1  0
  3  5  2  0
  3  6  1  0
  4  9  1  0
  4 11  2  0
  5 12  1  0
  6 13  2  0
  7 14  2  0
  8 15  2  0
  9 16  2  0
 10 12  2  0
 10 13  1  0
 11 26  1  0
 12 17  1  0
 13 24  1  0
 14 15  1  0
 14 28  1  0
 15 29  1  0
 16 18  1  0
 16 26  1  0
 17 22  2  0
 17 27  1  0
 18 23  2  0
 18 27  1  0
 19 21  1  0
 19 24  1  0
 19 25  2  0
 20 28  1  0
 21 29  1  0
 22 23  1  0
M  END
>  <washed_aromatic_smiles>  (329) 
COc1ccccc1OCC(=O)Nc2cccc(c2)c3nnc(o3)c4ccco4

>  <name>  (329) 
neg174432

$$$$
neg85238
     RDKit          3D

 28 30  0  0  0  0  0  0  0  0999 V2000
    1.8000   -0.5000   50.4000 C   0  0  0  0  0  0  0  0  0  0  0  0
    0.2990    1.0450   47.3790 C   0  0  0  0  0  0  0  0  0  0  0  0
    4.6990    9.2580   56.6290 C   0  0  0  0  0  0  0  0  0  0  0  0
    0.6210    2.3800   47.5680 C   0  0  0  0  0  0  0  0  0  0  0  0
    5.0130    9.0560   55.2900 C   0  0  0  0  0  0  0  0  0  0  0  0
    0.6730    0.1100   48.3290 C   0  0  0  0  0  0  0  0  0  0  0  0
    3.3740    9.2100   57.0370 C   0  0  0  0  0  0  0  0  0  0  0  0
    1.3230    2.7930   48.6920 C   0  0  0  0  0  0  0  0  0  0  0  0
    4.0060    8.7930   54.3680 C   0  0  0  0  0  0  0  0  0  0  0  0
    1.3610    0.5110   49.4710 C   0  0  0  0  0  0  0  0  0  0  0  0
    2.3750    8.9240   56.1120 C   0  0  0  0  0  0  0  0  0  0  0  0
    1.6630    1.8710   49.6760 C   0  0  0  0  0  0  0  0  0  0  0  0
    2.6720    8.6650   54.7640 C   0  0  0  0  0  0  0  0  0  0  0  0
    0.8750    4.8720   51.2910 C   0  0  0  0  0  0  0  0  0  0  0  0
    3.1950    5.0700   51.8230 C   0  0  0  0  0  0  0  0  0  0  0  0
    0.5740    6.1520   52.1340 C   0  0  0  0  0  0  0  0  0  0  0  0
    2.8880    6.5510   52.1070 C   0  0  0  0  0  0  0  0  0  0  0  0
   -0.0380    8.7550   57.4360 C   0  0  0  0  0  0  0  0  0  0  0  0
    2.1940   -1.2630   51.1490 N   0  0  0  0  0  0  0  0  0  0  0  0
    2.1340    4.1390   51.4330 N   0  0  0  0  0  0  0  0  0  0  0  0
    1.6780    6.7920   52.8530 N   0  0  0  0  0  0  0  0  0  0  0  0
    1.5880    1.6040   52.2060 O   0  0  0  0  0  0  0  0  0  0  0  0
    3.7060    2.0230   51.2900 O   0  0  0  0  0  0  0  0  0  0  0  0
    0.1180    8.3060   54.1400 O   0  0  0  0  0  0  0  0  0  0  0  0
    1.5600    9.3160   52.5220 O   0  0  0  0  0  0  0  0  0  0  0  0
    1.0610    8.9370   56.5060 O   0  0  0  0  0  0  0  0  0  0  0  0
    2.3420    2.3590   51.2700 S   0  0  0  0  0  0  0  0  0  0  0  0
    1.3930    8.3250   53.5160 S   0  0  0  0  0  0  0  0  0  0  0  0
  1 10  1  0
  1 19  3  0
  2  4  2  0
  2  6  1  0
  3  5  2  0
  3  7  1  0
  4  8  1  0
  5  9  1  0
  6 10  2  0
  7 11  2  0
  8 12  2  0
  9 13  2  0
 10 12  1  0
 11 13  1  0
 11 26  1  0
 12 27  1  0
 13 28  1  0
 14 16  1  0
 14 20  1  0
 15 17  1  0
 15 20  1  0
 16 21  1  0
 17 21  1  0
 18 26  1  0
 20 27  1  0
 21 28  1  0
 22 27  2  0
 23 27  2  0
 24 28  2  0
 25 28  2  0
M  END
>  <washed_aromatic_smiles>  (330) 
COc1ccccc1S(=O)(=O)N2CCN(CC2)S(=O)(=O)c3ccccc3C#N

>  <name>  (330) 
neg85238

$$$$
neg220764
     RDKit          3D

 30 34  0  0  0  0  0  0  0  0999 V2000
    2.9300    4.4850   48.6450 C   0  0  0  0  0  0  0  0  0  0  0  0
    2.6220    3.4660   49.5730 C   0  0  0  0  0  0  0  0  0  0  0  0
    5.4820   11.8570   56.2930 C   0  0  0  0  0  0  0  0  0  0  0  0
    5.4160    7.8350   58.3150 C   0  0  0  0  0  0  0  0  0  0  0  0
    5.1930   12.9910   55.5490 C   0  0  0  0  0  0  0  0  0  0  0  0
    5.0850    9.0920   58.8110 C   0  0  0  0  0  0  0  0  0  0  0  0
    3.1340    5.7760   49.0670 C   0  0  0  0  0  0  0  0  0  0  0  0
    2.6250    3.7470   50.9090 C   0  0  0  0  0  0  0  0  0  0  0  0
    5.3000   10.5920   55.7380 C   0  0  0  0  0  0  0  0  0  0  0  0
    4.7980    7.3630   57.1630 C   0  0  0  0  0  0  0  0  0  0  0  0
    4.8870   12.8390   54.2090 C   0  0  0  0  0  0  0  0  0  0  0  0
    4.0320    9.7990   58.2400 C   0  0  0  0  0  0  0  0  0  0  0  0
    3.1250    7.4340   50.9580 C   0  0  0  0  0  0  0  0  0  0  0  0
    3.1960    5.3430   52.6900 C   0  0  0  0  0  0  0  0  0  0  0  0
    3.0170    6.1240   50.4480 C   0  0  0  0  0  0  0  0  0  0  0  0
    2.9090    5.0670   51.3630 C   0  0  0  0  0  0  0  0  0  0  0  0
    4.6600   10.4110   54.5050 C   0  0  0  0  0  0  0  0  0  0  0  0
    3.8750    8.1600   56.4690 C   0  0  0  0  0  0  0  0  0  0  0  0
    3.1920    7.7250   52.3330 C   0  0  0  0  0  0  0  0  0  0  0  0
    3.2050    6.6340   53.2180 C   0  0  0  0  0  0  0  0  0  0  0  0
    4.7520   11.5540   53.6950 C   0  0  0  0  0  0  0  0  0  0  0  0
    3.3300    9.2360   57.1760 C   0  0  0  0  0  0  0  0  0  0  0  0
    3.9640    9.1320   54.0850 C   0  0  0  0  0  0  0  0  0  0  0  0
    3.6900    8.0260   55.0190 C   0  0  0  0  0  0  0  0  0  0  0  0
    6.2460   10.8290   52.0980 C   0  0  0  0  0  0  0  0  0  0  0  0
    0.8660    9.1010   57.0870 C   0  0  0  0  0  0  0  0  0  0  0  0
    3.5840    8.9860   52.8280 N   0  0  0  0  0  0  0  0  0  0  0  0
    3.3370    6.8580   54.5730 N   0  0  0  0  0  0  0  0  0  0  0  0
    4.9790   11.4260   52.3960 O   0  0  0  0  0  0  0  0  0  0  0  0
    2.1470    9.7820   56.8020 O   0  0  0  0  0  0  0  0  0  0  0  0
  1  2  2  0
  1  7  1  0
  2  8  1  0
  3  5  2  0
  3  9  1  0
  4  6  2  0
  4 10  1  0
  5 11  1  0
  6 12  1  0
  7 15  2  0
  8 16  2  0
  9 17  2  0
 10 18  2  0
 11 21  2  0
 12 22  2  0
 13 15  1  0
 13 19  2  0
 14 16  1  0
 14 20  2  0
 15 16  1  0
 17 21  1  0
 17 23  1  0
 18 22  1  0
 18 24  1  0
 19 20  1  0
 19 27  1  0
 20 28  1  0
 21 29  1  0
 22 30  1  0
 23 24  1  0
 23 27  2  0
 24 28  2  0
 25 29  1  0
 26 30  1  0
M  END
>  <washed_aromatic_smiles>  (331) 
COc1ccccc1c2c(nc3cc4ccccc4cc3n2)c5ccccc5OC

>  <name>  (331) 
neg220764

$$$$
neg323103
     RDKit          3D

 26 28  0  0  0  0  0  0  0  0999 V2000
    4.4100   10.7610   54.9600 C   0  0  0  0  0  0  0  0  0  0  0  0
    5.7350   12.3070   54.1380 C   0  0  0  0  0  0  0  0  0  0  0  0
    5.4990   12.1260   56.3710 C   0  0  0  0  0  0  0  0  0  0  0  0
    2.9380    6.4160   52.8580 C   0  0  0  0  0  0  0  0  0  0  0  0
    1.7310    2.7290   48.7120 C   0  0  0  0  0  0  0  0  0  0  0  0
    2.8600    3.5440   48.0740 C   0  0  0  0  0  0  0  0  0  0  0  0
    1.6490    2.8640   50.2240 C   0  0  0  0  0  0  0  0  0  0  0  0
    2.9300    5.0490   48.3420 C   0  0  0  0  0  0  0  0  0  0  0  0
    1.3180    4.3200   50.5940 C   0  0  0  0  0  0  0  0  0  0  0  0
    3.3750    5.5890   49.6920 C   0  0  0  0  0  0  0  0  0  0  0  0
    1.8660    8.6480   53.3730 C   0  0  0  0  0  0  0  0  0  0  0  0
    3.2320    7.4670   55.1390 C   0  0  0  0  0  0  0  0  0  0  0  0
    3.0890    9.5360   53.2500 C   0  0  0  0  0  0  0  0  0  0  0  0
    4.3630    8.4220   54.9230 C   0  0  0  0  0  0  0  0  0  0  0  0
    2.2870    7.2900   53.9230 C   0  0  0  0  0  0  0  0  0  0  0  0
    2.5800    5.0880   50.8890 C   0  0  0  0  0  0  0  0  0  0  0  0
    6.6070   11.3120   52.1090 C   0  0  0  0  0  0  0  0  0  0  0  0
    5.3410   11.8230   58.8180 C   0  0  0  0  0  0  0  0  0  0  0  0
    4.8090   11.4420   53.9420 N   0  0  0  0  0  0  0  0  0  0  0  0
    4.6930   11.0740   56.2240 N   0  0  0  0  0  0  0  0  0  0  0  0
    6.0920   12.7570   55.3440 N   0  0  0  0  0  0  0  0  0  0  0  0
    3.7370    9.6550   54.5860 N   0  0  0  0  0  0  0  0  0  0  0  0
    2.2380    6.1850   51.7560 N   0  0  0  0  0  0  0  0  0  0  0  0
    4.0040    5.8490   53.0690 O   0  0  0  0  0  0  0  0  0  0  0  0
    6.3820   12.5470   52.9920 O   0  0  0  0  0  0  0  0  0  0  0  0
    5.7770   12.5570   57.6340 O   0  0  0  0  0  0  0  0  0  0  0  0
  1 19  1  0
  1 20  2  0
  1 22  1  0
  2 19  2  0
  2 21  1  0
  2 25  1  0
  3 20  1  0
  3 21  2  0
  3 26  1  0
  4 15  1  0
  4 23  1  0
  4 24  2  0
  5  6  1  0
  5  7  1  0
  6  8  1  0
  7  9  1  0
  8 10  1  0
  9 16  1  0
 10 16  1  0
 11 13  1  0
 11 15  1  0
 12 14  1  0
 12 15  1  0
 13 22  1  0
 14 22  1  0
 16 23  1  0
 17 25  1  0
 18 26  1  0
M  END
>  <washed_aromatic_smiles>  (332) 
COc1nc(nc(n1)OC)N2CCC(CC2)C(=O)NC3CCCCCC3

>  <name>  (332) 
neg323103

$$$$
neg8494
     RDKit          3D

 26 28  0  0  0  0  0  0  0  0999 V2000
    4.8810    9.2920   58.5060 C   0  0  0  0  0  0  0  0  0  0  0  0
    2.7240    4.1930   51.7010 C   0  0  0  0  0  0  0  0  0  0  0  0
    1.8970    4.5840   49.4780 C   0  0  0  0  0  0  0  0  0  0  0  0
    2.4310    2.8470   51.5680 C   0  0  0  0  0  0  0  0  0  0  0  0
    1.5680    3.2430   49.3610 C   0  0  0  0  0  0  0  0  0  0  0  0
    4.2690    9.9240   57.4190 C   0  0  0  0  0  0  0  0  0  0  0  0
    5.0770    7.9560   58.3020 C   0  0  0  0  0  0  0  0  0  0  0  0
    2.4560    5.0790   50.6630 C   0  0  0  0  0  0  0  0  0  0  0  0
    1.8040    2.3710   50.4200 C   0  0  0  0  0  0  0  0  0  0  0  0
    4.0260    9.0810   56.3580 C   0  0  0  0  0  0  0  0  0  0  0  0
    2.8610    6.4680   50.7680 C   0  0  0  0  0  0  0  0  0  0  0  0
    3.6700    9.5180   55.0220 C   0  0  0  0  0  0  0  0  0  0  0  0
    1.6110    7.0160   52.9520 C   0  0  0  0  0  0  0  0  0  0  0  0
    3.2650    8.5590   52.0530 C   0  0  0  0  0  0  0  0  0  0  0  0
    1.9540    7.6930   54.3300 C   0  0  0  0  0  0  0  0  0  0  0  0
    2.4720    9.5360   52.8850 C   0  0  0  0  0  0  0  0  0  0  0  0
    3.9190    0.1580   51.0810 C   0  0  0  0  0  0  0  0  0  0  0  0
    1.2980    0.9500   50.3460 C   0  0  0  0  0  0  0  0  0  0  0  0
    2.6390    7.2400   51.9210 N   0  0  0  0  0  0  0  0  0  0  0  0
    2.5720    9.0500   54.2570 N   0  0  0  0  0  0  0  0  0  0  0  0
    3.4610    6.9670   49.8220 O   0  0  0  0  0  0  0  0  0  0  0  0
    4.3840   10.3870   54.5130 O   0  0  0  0  0  0  0  0  0  0  0  0
    1.8390   -0.3100   52.5910 O   0  0  0  0  0  0  0  0  0  0  0  0
    2.0350   -1.5180   50.4950 O   0  0  0  0  0  0  0  0  0  0  0  0
    4.5200    7.4690   56.7470 S   0  0  0  0  0  0  0  0  0  0  0  0
    2.2070   -0.3160   51.2160 S   0  0  0  0  0  0  0  0  0  0  0  0
  1  6  1  0
  1  7  2  0
  2  4  2  0
  2  8  1  0
  3  5  1  0
  3  8  2  0
  4  9  1  0
  5  9  2  0
  6 10  2  0
  7 25  1  0
  8 11  1  0
  9 18  1  0
 10 12  1  0
 10 25  1  0
 11 19  1  0
 11 21  2  0
 12 20  1  0
 12 22  2  0
 13 15  1  0
 13 19  1  0
 14 16  1  0
 14 19  1  0
 15 20  1  0
 16 20  1  0
 17 26  1  0
 18 26  1  0
 23 26  2  0
 24 26  2  0
M  END
>  <washed_aromatic_smiles>  (333) 
CS(=O)(=O)Cc1ccc(cc1)C(=O)N2CCN(CC2)C(=O)c3cccs3

>  <name>  (333) 
neg8494

$$$$
neg182708
     RDKit          3D

 25 26  0  0  0  0  0  0  0  0999 V2000
    4.9040    0.3020   57.2270 C   0  0  0  0  0  0  0  0  0  0  0  0
    4.6710   -0.7830   56.3700 C   0  0  0  0  0  0  0  0  0  0  0  0
    4.1750    1.4890   57.0530 C   0  0  0  0  0  0  0  0  0  0  0  0
    3.7260   -0.6610   55.3310 C   0  0  0  0  0  0  0  0  0  0  0  0
    3.2070    1.5900   56.0340 C   0  0  0  0  0  0  0  0  0  0  0  0
    0.8310    7.4750   52.9890 C   0  0  0  0  0  0  0  0  0  0  0  0
    3.1330    6.7800   53.0610 C   0  0  0  0  0  0  0  0  0  0  0  0
    1.0240    8.2360   54.1370 C   0  0  0  0  0  0  0  0  0  0  0  0
    3.3430    7.5670   54.1860 C   0  0  0  0  0  0  0  0  0  0  0  0
    2.9980    0.5170   55.1470 C   0  0  0  0  0  0  0  0  0  0  0  0
    1.8850    6.7440   52.4420 C   0  0  0  0  0  0  0  0  0  0  0  0
    2.2880    8.2930   54.7310 C   0  0  0  0  0  0  0  0  0  0  0  0
    2.0490    3.6770   50.2970 C   0  0  0  0  0  0  0  0  0  0  0  0
    0.4810    0.7320   49.3220 C   0  0  0  0  0  0  0  0  0  0  0  0
    2.0710    0.6060   53.9470 C   0  0  0  0  0  0  0  0  0  0  0  0
    1.6990    5.9460   51.1710 C   0  0  0  0  0  0  0  0  0  0  0  0
    2.6850    2.3370   50.5840 C   0  0  0  0  0  0  0  0  0  0  0  0
    2.7510    1.3160   52.7670 C   0  0  0  0  0  0  0  0  0  0  0  0
    2.1170    4.5620   51.2980 N   0  0  0  0  0  0  0  0  0  0  0  0
    1.9520    1.5080   51.5330 N   0  0  0  0  0  0  0  0  0  0  0  0
    1.5220    3.9240   49.2140 O   0  0  0  0  0  0  0  0  0  0  0  0
    1.8430   -0.8960   50.8100 O   0  0  0  0  0  0  0  0  0  0  0  0
   -0.1290    0.1390   51.7810 O   0  0  0  0  0  0  0  0  0  0  0  0
    1.0230    0.2600   50.9560 S   0  0  0  0  0  0  0  0  0  0  0  0
    2.5720    9.2310   56.1650 Cl  0  0  0  0  0  0  0  0  0  0  0  0
  1  2  2  0
  1  3  1  0
  2  4  1  0
  3  5  2  0
  4 10  2  0
  5 10  1  0
  6  8  2  0
  6 11  1  0
  7  9  1  0
  7 11  2  0
  8 12  1  0
  9 12  2  0
 10 15  1  0
 11 16  1  0
 12 25  1  0
 13 17  1  0
 13 19  1  0
 13 21  2  0
 14 24  1  0
 15 18  1  0
 16 19  1  0
 17 20  1  0
 18 20  1  0
 20 24  1  0
 22 24  2  0
 23 24  2  0
M  END
>  <washed_aromatic_smiles>  (334) 
CS(=O)(=O)N(CCc1ccccc1)CC(=O)NCc2ccc(cc2)Cl

>  <name>  (334) 
neg182708

$$$$
neg284884
     RDKit          3D

 25 27  0  0  0  0  0  0  0  0999 V2000
    5.6080   12.0770   59.3290 C   0  0  0  0  0  0  0  0  0  0  0  0
    5.7830   13.1450   58.4710 C   0  0  0  0  0  0  0  0  0  0  0  0
    5.2590   10.8200   58.8430 C   0  0  0  0  0  0  0  0  0  0  0  0
    5.5010   12.9790   57.1320 C   0  0  0  0  0  0  0  0  0  0  0  0
    4.9930   10.6520   57.4950 C   0  0  0  0  0  0  0  0  0  0  0  0
    3.2550    5.1910   52.6680 C   0  0  0  0  0  0  0  0  0  0  0  0
    2.8310    4.1310   51.8700 C   0  0  0  0  0  0  0  0  0  0  0  0
    3.0040    6.7550   50.8690 C   0  0  0  0  0  0  0  0  0  0  0  0
    5.0820   11.7460   56.6420 C   0  0  0  0  0  0  0  0  0  0  0  0
    3.1910    6.5050   52.2360 C   0  0  0  0  0  0  0  0  0  0  0  0
    2.6060    4.3890   50.5340 C   0  0  0  0  0  0  0  0  0  0  0  0
    2.7910    5.6560   50.0290 C   0  0  0  0  0  0  0  0  0  0  0  0
    2.8810    8.6160   53.6840 C   0  0  0  0  0  0  0  0  0  0  0  0
    2.4240    4.2440   48.3440 C   0  0  0  0  0  0  0  0  0  0  0  0
    6.1550   11.8540   52.6040 C   0  0  0  0  0  0  0  0  0  0  0  0
    4.7080   11.7710   55.1980 C   0  0  0  0  0  0  0  0  0  0  0  0
    3.5890    9.4390   54.7940 C   0  0  0  0  0  0  0  0  0  0  0  0
    3.5430    7.4840   53.2420 N   0  0  0  0  0  0  0  0  0  0  0  0
    4.5130   10.5550   54.3610 N   0  0  0  0  0  0  0  0  0  0  0  0
    1.7920    8.9070   53.2260 O   0  0  0  0  0  0  0  0  0  0  0  0
    6.6570    9.5050   53.6070 O   0  0  0  0  0  0  0  0  0  0  0  0
    4.8460    9.7700   52.0380 O   0  0  0  0  0  0  0  0  0  0  0  0
    2.3260    3.4710   49.5720 O   0  0  0  0  0  0  0  0  0  0  0  0
    2.8180    5.6100   48.6700 O   0  0  0  0  0  0  0  0  0  0  0  0
    5.5640   10.2780   53.1300 S   0  0  0  0  0  0  0  0  0  0  0  0
  1  2  2  0
  1  3  1  0
  2  4  1  0
  3  5  2  0
  4  9  2  0
  5  9  1  0
  6  7  2  0
  6 10  1  0
  7 11  1  0
  8 10  2  0
  8 12  1  0
  9 16  1  0
 10 18  1  0
 11 12  2  0
 11 23  1  0
 12 24  1  0
 13 17  1  0
 13 18  1  0
 13 20  2  0
 14 23  1  0
 14 24  1  0
 15 25  1  0
 16 19  1  0
 17 19  1  0
 19 25  1  0
 21 25  2  0
 22 25  2  0
M  END
>  <washed_aromatic_smiles>  (335) 
CS(=O)(=O)N(Cc1ccccc1)CC(=O)Nc2ccc3c(c2)OCO3

>  <name>  (335) 
neg284884

$$$$
neg105585
     RDKit          3D

 30 32  0  0  0  0  0  0  0  0999 V2000
    5.6950    8.6670   59.4330 C   0  0  0  0  0  0  0  0  0  0  0  0
    5.8290   10.0310   59.1880 C   0  0  0  0  0  0  0  0  0  0  0  0
    4.8040    7.9280   58.6800 C   0  0  0  0  0  0  0  0  0  0  0  0
    1.5870    1.7470   49.9880 C   0  0  0  0  0  0  0  0  0  0  0  0
    1.1740    3.1450   48.0830 C   0  0  0  0  0  0  0  0  0  0  0  0
    2.9600    8.0310   52.2010 C   0  0  0  0  0  0  0  0  0  0  0  0
    3.5160    6.7570   54.1030 C   0  0  0  0  0  0  0  0  0  0  0  0
    5.1480   10.6400   58.1480 C   0  0  0  0  0  0  0  0  0  0  0  0
    4.0590    8.5600   57.6950 C   0  0  0  0  0  0  0  0  0  0  0  0
    1.9650    2.8590   50.7200 C   0  0  0  0  0  0  0  0  0  0  0  0
    1.5530    4.2700   48.8040 C   0  0  0  0  0  0  0  0  0  0  0  0
    3.2680    9.2040   52.8950 C   0  0  0  0  0  0  0  0  0  0  0  0
    4.0270    7.8730   54.7190 C   0  0  0  0  0  0  0  0  0  0  0  0
    1.1610    1.8710   48.6620 C   0  0  0  0  0  0  0  0  0  0  0  0
    3.0470    6.7810   52.7960 C   0  0  0  0  0  0  0  0  0  0  0  0
    4.2800    9.8930   57.3730 C   0  0  0  0  0  0  0  0  0  0  0  0
    1.9270    4.1480   50.1440 C   0  0  0  0  0  0  0  0  0  0  0  0
    3.8500    9.1230   54.1590 C   0  0  0  0  0  0  0  0  0  0  0  0
    0.7070    0.7150   47.8930 C   0  0  0  0  0  0  0  0  0  0  0  0
    2.8130    5.5090   52.1050 C   0  0  0  0  0  0  0  0  0  0  0  0
    6.2540   10.6280   53.0020 C   0  0  0  0  0  0  0  0  0  0  0  0
    3.6160   10.5120   56.1770 C   0  0  0  0  0  0  0  0  0  0  0  0
    0.4300   -0.4550   48.5410 N   0  0  0  0  0  0  0  0  0  0  0  0
    2.2200    5.3820   50.8470 N   0  0  0  0  0  0  0  0  0  0  0  0
    4.3010   10.2370   54.8930 N   0  0  0  0  0  0  0  0  0  0  0  0
    0.5510    0.7260   46.6770 O   0  0  0  0  0  0  0  0  0  0  0  0
    3.1800    4.4800   52.6260 O   0  0  0  0  0  0  0  0  0  0  0  0
    6.0170   12.0920   55.1470 O   0  0  0  0  0  0  0  0  0  0  0  0
    4.3460   12.3360   53.4270 O   0  0  0  0  0  0  0  0  0  0  0  0
    5.1980   11.4720   54.1640 S   0  0  0  0  0  0  0  0  0  0  0  0
  1  2  2  0
  1  3  1  0
  2  8  1  0
  3  9  2  0
  4 10  2  0
  4 14  1  0
  5 11  1  0
  5 14  2  0
  6 12  2  0
  6 15  1  0
  7 13  1  0
  7 15  2  0
  8 16  2  0
  9 16  1  0
 10 17  1  0
 11 17  2  0
 12 18  1  0
 13 18  2  0
 14 19  1  0
 15 20  1  0
 16 22  1  0
 17 24  1  0
 18 25  1  0
 19 23  1  0
 19 26  2  0
 20 24  1  0
 20 27  2  0
 21 30  1  0
 22 25  1  0
 25 30  1  0
 28 30  2  0
 29 30  2  0
M  END
>  <washed_aromatic_smiles>  (336) 
CS(=O)(=O)N(Cc1ccccc1)c2ccc(cc2)C(=O)Nc3ccc(cc3)C(=O)N

>  <name>  (336) 
neg105585

$$$$
neg291194
     RDKit          3D

 28 30  0  0  0  0  0  0  0  0999 V2000
    5.3140   13.3040   55.3300 C   0  0  0  0  0  0  0  0  0  0  0  0
    5.3560   13.2600   56.7190 C   0  0  0  0  0  0  0  0  0  0  0  0
    4.9930   12.1660   54.6100 C   0  0  0  0  0  0  0  0  0  0  0  0
    5.0270   12.0870   57.3900 C   0  0  0  0  0  0  0  0  0  0  0  0
    4.6620   10.9980   55.2790 C   0  0  0  0  0  0  0  0  0  0  0  0
    4.6440   10.9520   56.6800 C   0  0  0  0  0  0  0  0  0  0  0  0
    2.5360    5.1690   50.3760 C   0  0  0  0  0  0  0  0  0  0  0  0
    3.3030    3.5950   48.4870 C   0  0  0  0  0  0  0  0  0  0  0  0
    1.0660    4.3450   48.4700 C   0  0  0  0  0  0  0  0  0  0  0  0
    2.8400    2.3260   49.2770 C   0  0  0  0  0  0  0  0  0  0  0  0
    0.8070    2.8250   48.1290 C   0  0  0  0  0  0  0  0  0  0  0  0
    2.1340    9.2490   56.1520 C   0  0  0  0  0  0  0  0  0  0  0  0
    4.2540    7.9190   55.8160 C   0  0  0  0  0  0  0  0  0  0  0  0
    1.5570    8.6000   54.8670 C   0  0  0  0  0  0  0  0  0  0  0  0
    3.5900    7.3660   54.5560 C   0  0  0  0  0  0  0  0  0  0  0  0
    2.4540    4.7590   48.8880 C   0  0  0  0  0  0  0  0  0  0  0  0
    1.8600   -0.3900   50.5310 C   0  0  0  0  0  0  0  0  0  0  0  0
    4.1980    9.7350   57.4820 C   0  0  0  0  0  0  0  0  0  0  0  0
    1.9050    7.4730   52.8240 C   0  0  0  0  0  0  0  0  0  0  0  0
    2.9340    7.1210   51.7730 C   0  0  0  0  0  0  0  0  0  0  0  0
    3.3920    8.6800   56.7650 N   0  0  0  0  0  0  0  0  0  0  0  0
    2.5650    8.2050   53.9220 N   0  0  0  0  0  0  0  0  0  0  0  0
    1.5090    1.8640   48.9770 N   0  0  0  0  0  0  0  0  0  0  0  0
    2.5030    6.4720   50.5830 N   0  0  0  0  0  0  0  0  0  0  0  0
    2.6100    4.3810   51.3160 O   0  0  0  0  0  0  0  0  0  0  0  0
   -0.3980    0.2580   49.4250 O   0  0  0  0  0  0  0  0  0  0  0  0
    0.4070    1.6250   51.2530 O   0  0  0  0  0  0  0  0  0  0  0  0
    0.7020    0.8880   50.0730 S   0  0  0  0  0  0  0  0  0  0  0  0
  1  2  2  0
  1  3  1  0
  2  4  1  0
  3  5  2  0
  4  6  2  0
  5  6  1  0
  6 18  1  0
  7 16  1  0
  7 24  1  0
  7 25  2  0
  8 10  1  0
  8 16  1  0
  9 11  1  0
  9 16  1  0
 10 23  1  0
 11 23  1  0
 12 14  1  0
 12 21  1  0
 13 15  1  0
 13 21  1  0
 14 22  1  0
 15 22  1  0
 17 28  1  0
 18 21  1  0
 19 20  1  0
 19 22  1  0
 20 24  1  0
 23 28  1  0
 26 28  2  0
 27 28  2  0
M  CHG  1  21   1
M  END
>  <washed_aromatic_smiles>  (337) 
CS(=O)(=O)N1CCC(CC1)C(=O)NCCN2CCN(CC2)Cc3ccccc3

>  <name>  (337) 
neg291194

$$$$
neg282439
     RDKit          3D

 26 28  0  0  0  0  0  0  0  0999 V2000
    1.6020    8.0510   54.2670 C   0  0  0  0  0  0  0  0  0  0  0  0
    0.7170    7.8030   53.2250 C   0  0  0  0  0  0  0  0  0  0  0  0
    2.8760    7.4970   54.2380 C   0  0  0  0  0  0  0  0  0  0  0  0
    0.6270    0.7160   47.1630 C   0  0  0  0  0  0  0  0  0  0  0  0
    0.5230    2.0140   46.7210 C   0  0  0  0  0  0  0  0  0  0  0  0
    1.1070    7.0160   52.1460 C   0  0  0  0  0  0  0  0  0  0  0  0
    3.2680    6.7190   53.1540 C   0  0  0  0  0  0  0  0  0  0  0  0
    1.0060    0.4520   48.4630 C   0  0  0  0  0  0  0  0  0  0  0  0
    0.9210    3.0680   47.5420 C   0  0  0  0  0  0  0  0  0  0  0  0
    2.4000    6.5010   52.0870 C   0  0  0  0  0  0  0  0  0  0  0  0
    1.3440    1.5060   49.3190 C   0  0  0  0  0  0  0  0  0  0  0  0
    1.3590    2.8360   48.8370 C   0  0  0  0  0  0  0  0  0  0  0  0
    2.3850    4.3450   50.7040 C   0  0  0  0  0  0  0  0  0  0  0  0
    0.6830    0.3600   51.3080 C   0  0  0  0  0  0  0  0  0  0  0  0
    2.9560    0.5920   50.7800 C   0  0  0  0  0  0  0  0  0  0  0  0
    1.0390    0.1800   52.7780 C   0  0  0  0  0  0  0  0  0  0  0  0
    3.3840    0.5740   52.2360 C   0  0  0  0  0  0  0  0  0  0  0  0
    2.9140    1.2660   55.3500 C   0  0  0  0  0  0  0  0  0  0  0  0
    2.8830    5.7580   50.8560 C   0  0  0  0  0  0  0  0  0  0  0  0
    1.6490    1.2020   50.6330 N   0  0  0  0  0  0  0  0  0  0  0  0
    2.4410   -0.1610   53.0760 N   0  0  0  0  0  0  0  0  0  0  0  0
    1.7710    4.0530   49.5030 N   0  0  0  0  0  0  0  0  0  0  0  0
    2.5940    3.5310   51.5700 O   0  0  0  0  0  0  0  0  0  0  0  0
    3.9800   -1.0370   54.8990 O   0  0  0  0  0  0  0  0  0  0  0  0
    1.6450   -1.0250   55.2310 O   0  0  0  0  0  0  0  0  0  0  0  0
    2.7580   -0.3790   54.6780 S   0  0  0  0  0  0  0  0  0  0  0  0
  1  2  2  0
  1  3  1  0
  2  6  1  0
  3  7  2  0
  4  5  2  0
  4  8  1  0
  5  9  1  0
  6 10  2  0
  7 10  1  0
  8 11  2  0
  9 12  2  0
 10 19  1  0
 11 12  1  0
 11 20  1  0
 12 22  1  0
 13 19  1  0
 13 22  1  0
 13 23  2  0
 14 16  1  0
 14 20  1  0
 15 17  1  0
 15 20  1  0
 16 21  1  0
 17 21  1  0
 18 26  1  0
 21 26  1  0
 24 26  2  0
 25 26  2  0
M  END
>  <washed_aromatic_smiles>  (338) 
CS(=O)(=O)N1CCN(CC1)c2ccccc2NC(=O)Cc3ccccc3

>  <name>  (338) 
neg282439

$$$$
neg252376
     RDKit          3D

 26 28  0  0  0  0  0  0  0  0999 V2000
    0.5570    8.5510   54.0470 C   0  0  0  0  0  0  0  0  0  0  0  0
    1.6070    8.6290   54.9640 C   0  0  0  0  0  0  0  0  0  0  0  0
    0.7880    1.5370   47.6120 C   0  0  0  0  0  0  0  0  0  0  0  0
    0.9720    1.2090   49.9750 C   0  0  0  0  0  0  0  0  0  0  0  0
    0.7210    7.8990   52.8320 C   0  0  0  0  0  0  0  0  0  0  0  0
   -0.2300    0.6220   47.5670 C   0  0  0  0  0  0  0  0  0  0  0  0
   -0.1050    0.3310   49.9540 C   0  0  0  0  0  0  0  0  0  0  0  0
    2.8240    8.0300   54.6780 C   0  0  0  0  0  0  0  0  0  0  0  0
    1.3960    1.9240   48.8190 C   0  0  0  0  0  0  0  0  0  0  0  0
    1.9300    7.2680   52.5400 C   0  0  0  0  0  0  0  0  0  0  0  0
   -0.7950    0.0270   48.7360 C   0  0  0  0  0  0  0  0  0  0  0  0
    2.9560    7.3330   53.4920 C   0  0  0  0  0  0  0  0  0  0  0  0
    2.3450    3.0390   48.7750 C   0  0  0  0  0  0  0  0  0  0  0  0
    1.4850    5.1850   51.7350 C   0  0  0  0  0  0  0  0  0  0  0  0
    3.2140    6.2770   50.6060 C   0  0  0  0  0  0  0  0  0  0  0  0
    1.2970    4.2710   50.5530 C   0  0  0  0  0  0  0  0  0  0  0  0
    3.1390    5.2750   49.4420 C   0  0  0  0  0  0  0  0  0  0  0  0
   -4.0030   -2.5090   48.7040 C   0  0  0  0  0  0  0  0  0  0  0  0
    1.9730    6.4740   51.3730 N   0  0  0  0  0  0  0  0  0  0  0  0
    2.4830    3.9890   49.7890 N   0  0  0  0  0  0  0  0  0  0  0  0
   -2.0060   -0.5520   48.6060 N   0  0  0  0  0  0  0  0  0  0  0  0
    3.0320    3.2820   47.7740 O   0  0  0  0  0  0  0  0  0  0  0  0
   -3.2980   -1.1480   50.7260 O   0  0  0  0  0  0  0  0  0  0  0  0
   -4.3910    0.0110   49.0330 O   0  0  0  0  0  0  0  0  0  0  0  0
    4.0560    6.6370   53.3500 F   0  0  0  0  0  0  0  0  0  0  0  0
   -3.4320   -0.9500   49.3530 S   0  0  2  0  0  0  0  0  0  0  0  0
  1  2  2  0
  1  5  1  0
  2  8  1  0
  3  6  2  0
  3  9  1  0
  4  7  1  0
  4  9  2  0
  5 10  2  0
  6 11  1  0
  7 11  2  0
  8 12  2  0
  9 13  1  0
 10 12  1  0
 10 19  1  0
 11 21  1  0
 12 25  1  0
 13 20  1  0
 13 22  2  0
 14 16  1  0
 14 19  1  0
 15 17  1  0
 15 19  1  0
 16 20  1  0
 17 20  1  0
 26 18  1  6
 21 26  2  0
 23 26  2  0
 24 26  1  0
M  CHG  1  24  -1
M  END
>  <washed_aromatic_smiles>  (339) 
CS(=O)(=O)Nc1ccc(cc1)C(=O)N2CCN(CC2)c3ccccc3F

>  <name>  (339) 
neg252376

$$$$
neg43719
     RDKit          3D

 28 30  0  0  0  0  0  0  0  0999 V2000
    4.7510    0.2790   57.1740 C   0  0  0  0  0  0  0  0  0  0  0  0
   -1.0640   -0.0790   48.7480 C   0  0  0  0  0  0  0  0  0  0  0  0
    4.4830   -0.7560   56.2700 C   0  0  0  0  0  0  0  0  0  0  0  0
    4.1120    1.5130   57.0080 C   0  0  0  0  0  0  0  0  0  0  0  0
    0.0090    0.2930   47.9670 C   0  0  0  0  0  0  0  0  0  0  0  0
   -1.0320    0.1920   50.1140 C   0  0  0  0  0  0  0  0  0  0  0  0
    3.1140    5.8780   51.0570 C   0  0  0  0  0  0  0  0  0  0  0  0
    0.9750    4.9930   51.5940 C   0  0  0  0  0  0  0  0  0  0  0  0
    3.6150   -0.5400   55.1780 C   0  0  0  0  0  0  0  0  0  0  0  0
    3.2420    1.7250   55.9220 C   0  0  0  0  0  0  0  0  0  0  0  0
    1.1440    0.7590   48.5900 C   0  0  0  0  0  0  0  0  0  0  0  0
    0.1430    0.5590   50.7420 C   0  0  0  0  0  0  0  0  0  0  0  0
    2.7410    7.0770   51.6590 C   0  0  0  0  0  0  0  0  0  0  0  0
    0.6080    6.1660   52.2180 C   0  0  0  0  0  0  0  0  0  0  0  0
    2.2480    4.7900   51.0900 C   0  0  0  0  0  0  0  0  0  0  0  0
    3.0600    0.7310   54.9400 C   0  0  0  0  0  0  0  0  0  0  0  0
    1.2660    0.7810   49.9650 C   0  0  0  0  0  0  0  0  0  0  0  0
    1.5180    7.2010   52.3100 C   0  0  0  0  0  0  0  0  0  0  0  0
    2.5890    3.4910   50.5320 C   0  0  0  0  0  0  0  0  0  0  0  0
    2.7580    9.1720   53.8560 C   0  0  0  0  0  0  0  0  0  0  0  0
    2.3560    1.0120   53.6080 C   0  0  0  0  0  0  0  0  0  0  0  0
    2.6110    1.0650   50.5620 C   0  0  0  0  0  0  0  0  0  0  0  0
    3.0250    2.1330   52.7180 C   0  0  0  0  0  0  0  0  0  0  0  0
    2.5930    2.3000   51.3030 N   0  0  0  0  0  0  0  0  0  0  0  0
    2.8160    3.4130   49.3240 O   0  0  0  0  0  0  0  0  0  0  0  0
    0.5280    9.6080   52.5160 O   0  0  0  0  0  0  0  0  0  0  0  0
    0.4280    8.1840   54.4710 O   0  0  0  0  0  0  0  0  0  0  0  0
    1.1460    8.6150   53.3220 S   0  0  0  0  0  0  0  0  0  0  0  0
  1  3  2  0
  1  4  1  0
  2  5  2  0
  2  6  1  0
  3  9  1  0
  4 10  2  0
  5 11  1  0
  6 12  2  0
  7 13  2  0
  7 15  1  0
  8 14  1  0
  8 15  2  0
  9 16  2  0
 10 16  1  0
 11 17  2  0
 12 17  1  0
 13 18  1  0
 14 18  2  0
 15 19  1  0
 16 21  1  0
 17 22  1  0
 18 28  1  0
 19 24  1  0
 19 25  2  0
 20 28  1  0
 21 23  1  0
 22 24  1  0
 23 24  1  0
 26 28  2  0
 27 28  2  0
M  END
>  <washed_aromatic_smiles>  (340) 
CS(=O)(=O)c1ccc(cc1)C(=O)N(CCc2ccccc2)Cc3ccccc3

>  <name>  (340) 
neg43719

$$$$
neg82846
     RDKit          3D

 26 28  0  0  0  0  0  0  0  0999 V2000
   -0.2120    8.9500   53.8030 C   0  0  0  0  0  0  0  0  0  0  0  0
    2.8240    3.9030   47.7550 C   0  0  0  0  0  0  0  0  0  0  0  0
    0.4500    9.5490   52.7630 C   0  0  0  0  0  0  0  0  0  0  0  0
    0.3860    7.9410   54.5210 C   0  0  0  0  0  0  0  0  0  0  0  0
    3.9890    4.3550   48.3280 C   0  0  0  0  0  0  0  0  0  0  0  0
    1.6110    4.4010   48.1600 C   0  0  0  0  0  0  0  0  0  0  0  0
    3.3770    2.0880   51.8180 C   0  0  0  0  0  0  0  0  0  0  0  0
    1.4640    3.2180   51.0070 C   0  0  0  0  0  0  0  0  0  0  0  0
    1.7040    9.0930   52.4720 C   0  0  0  0  0  0  0  0  0  0  0  0
    1.5310    7.3500   54.0160 C   0  0  0  0  0  0  0  0  0  0  0  0
    3.9520    5.2280   49.4080 C   0  0  0  0  0  0  0  0  0  0  0  0
    1.5460    5.2120   49.2790 C   0  0  0  0  0  0  0  0  0  0  0  0
    2.9760    0.9440   51.1160 C   0  0  0  0  0  0  0  0  0  0  0  0
    1.1730    2.1740   50.1820 C   0  0  0  0  0  0  0  0  0  0  0  0
    2.6550    3.2980   51.6920 C   0  0  0  0  0  0  0  0  0  0  0  0
    2.0730    7.8370   52.8530 C   0  0  0  0  0  0  0  0  0  0  0  0
    2.7190    5.5260   49.9760 C   0  0  0  0  0  0  0  0  0  0  0  0
    1.8640    1.0110   50.2760 C   0  0  0  0  0  0  0  0  0  0  0  0
    3.0060    4.6710   52.1530 C   0  0  0  0  0  0  0  0  0  0  0  0
    0.9980    0.1310   47.7110 C   0  0  0  0  0  0  0  0  0  0  0  0
    3.0460    7.1280   51.9740 C   0  0  0  0  0  0  0  0  0  0  0  0
    2.6900    5.7940   51.3840 N   0  0  0  0  0  0  0  0  0  0  0  0
    3.6870    4.9030   53.1240 O   0  0  0  0  0  0  0  0  0  0  0  0
    1.5820   -1.4640   49.7220 O   0  0  0  0  0  0  0  0  0  0  0  0
   -0.4030   -0.0780   49.8600 O   0  0  0  0  0  0  0  0  0  0  0  0
    0.9450   -0.2410   49.4550 S   0  0  0  0  0  0  0  0  0  0  0  0
  1  3  2  0
  1  4  1  0
  2  5  2  0
  2  6  1  0
  3  9  1  0
  4 10  2  0
  5 11  1  0
  6 12  2  0
  7 13  2  0
  7 15  1  0
  8 14  1  0
  8 15  2  0
  9 16  2  0
 10 16  1  0
 11 17  2  0
 12 17  1  0
 13 18  1  0
 14 18  2  0
 15 19  1  0
 16 21  1  0
 17 22  1  0
 18 26  1  0
 19 22  1  0
 19 23  2  0
 20 26  1  0
 21 22  1  0
 24 26  2  0
 25 26  2  0
M  END
>  <washed_aromatic_smiles>  (341) 
CS(=O)(=O)c1ccc(cc1)C(=O)N(Cc2ccccc2)c3ccccc3

>  <name>  (341) 
neg82846

$$$$
neg84386
     RDKit          3D

 27 29  0  0  0  0  0  0  0  0999 V2000
    2.8560   -1.3250   53.5910 C   0  0  0  0  0  0  0  0  0  0  0  0
    2.8430   -0.1520   54.3120 C   0  0  0  0  0  0  0  0  0  0  0  0
    2.2400   -1.4200   52.3590 C   0  0  0  0  0  0  0  0  0  0  0  0
    1.5820    8.3150   52.5320 C   0  0  0  0  0  0  0  0  0  0  0  0
    3.2010    6.8220   53.4430 C   0  0  0  0  0  0  0  0  0  0  0  0
    2.4020    0.9920   53.6850 C   0  0  0  0  0  0  0  0  0  0  0  0
    1.7440   -0.2920   51.7520 C   0  0  0  0  0  0  0  0  0  0  0  0
    2.3970    9.3890   52.8510 C   0  0  0  0  0  0  0  0  0  0  0  0
    3.9690    7.9100   53.8530 C   0  0  0  0  0  0  0  0  0  0  0  0
    2.0280    7.0070   52.6920 C   0  0  0  0  0  0  0  0  0  0  0  0
    2.0090    0.9360   52.3380 C   0  0  0  0  0  0  0  0  0  0  0  0
    3.6110    9.2080   53.5050 C   0  0  0  0  0  0  0  0  0  0  0  0
    1.2540    5.9530   52.0010 C   0  0  0  0  0  0  0  0  0  0  0  0
    3.1510    1.4930   50.2680 C   0  0  0  0  0  0  0  0  0  0  0  0
    3.0080    3.1880   52.0720 C   0  0  0  0  0  0  0  0  0  0  0  0
    1.0720    2.6650   50.6930 C   0  0  0  0  0  0  0  0  0  0  0  0
    3.1250    4.5310   51.2830 C   0  0  0  0  0  0  0  0  0  0  0  0
    1.2550    4.1680   50.1340 C   0  0  0  0  0  0  0  0  0  0  0  0
    2.2720    2.0730   51.3610 C   0  0  0  0  0  0  0  0  0  0  0  0
    6.2160   10.1400   53.0130 C   0  0  0  0  0  0  0  0  0  0  0  0
    1.8560    5.0850   51.0830 N   0  0  0  0  0  0  0  0  0  0  0  0
    0.0400    5.8860   52.1410 O   0  0  0  0  0  0  0  0  0  0  0  0
    4.0550    0.6800   50.5880 O   0  0  0  0  0  0  0  0  0  0  0  0
    4.2640   11.7860   53.3070 O   0  0  0  0  0  0  0  0  0  0  0  0
    5.0080   10.5750   55.2750 O   0  0  0  0  0  0  0  0  0  0  0  0
    2.9590    1.9040   49.1010 O   0  0  0  0  0  0  0  0  0  0  0  0
    4.7370   10.5710   53.8780 S   0  0  0  0  0  0  0  0  0  0  0  0
  1  2  2  0
  1  3  1  0
  2  6  1  0
  3  7  2  0
  4  8  2  0
  4 10  1  0
  5  9  1  0
  5 10  2  0
  6 11  2  0
  7 11  1  0
  8 12  1  0
  9 12  2  0
 10 13  1  0
 11 19  1  0
 12 27  1  0
 13 21  1  0
 13 22  2  0
 14 19  1  0
 14 23  1  0
 14 26  2  0
 15 17  1  0
 15 19  1  0
 16 18  1  0
 16 19  1  0
 17 21  1  0
 18 21  1  0
 20 27  1  0
 24 27  2  0
 25 27  2  0
M  CHG  1  23  -1
M  END
>  <washed_aromatic_smiles>  (342) 
CS(=O)(=O)c1ccc(cc1)C(=O)N2CCC(CC2)(c3ccccc3)C(=O)O

>  <name>  (342) 
neg84386

$$$$
neg35175
     RDKit          3D

 28 30  0  0  0  0  0  0  0  0999 V2000
    2.2810    3.3200   51.0610 C   0  0  0  0  0  0  0  0  0  0  0  0
    1.7130    4.0910   48.8460 C   0  0  0  0  0  0  0  0  0  0  0  0
    3.5080    6.7560   53.2940 C   0  0  0  0  0  0  0  0  0  0  0  0
    1.7930    8.2840   52.5400 C   0  0  0  0  0  0  0  0  0  0  0  0
    1.8310    2.0620   50.7450 C   0  0  0  0  0  0  0  0  0  0  0  0
    1.2980    2.8070   48.5120 C   0  0  0  0  0  0  0  0  0  0  0  0
    4.2260    7.8300   53.7980 C   0  0  0  0  0  0  0  0  0  0  0  0
    2.5720    9.3470   52.9550 C   0  0  0  0  0  0  0  0  0  0  0  0
    2.1610    4.3550   50.1430 C   0  0  0  0  0  0  0  0  0  0  0  0
    2.3350    7.0140   52.5990 C   0  0  0  0  0  0  0  0  0  0  0  0
    1.3210    1.7980   49.4750 C   0  0  0  0  0  0  0  0  0  0  0  0
    3.7900    9.1320   53.5930 C   0  0  0  0  0  0  0  0  0  0  0  0
    2.4580    5.6780   50.6170 C   0  0  0  0  0  0  0  0  0  0  0  0
    5.1090   11.0550   58.5450 C   0  0  0  0  0  0  0  0  0  0  0  0
    5.1910    9.6750   57.8800 C   0  0  0  0  0  0  0  0  0  0  0  0
    5.2600   12.1480   57.4780 C   0  0  0  0  0  0  0  0  0  0  0  0
    4.2250    9.5520   56.6940 C   0  0  0  0  0  0  0  0  0  0  0  0
    4.2460   11.9700   56.3490 C   0  0  0  0  0  0  0  0  0  0  0  0
    1.6760   -0.8320   50.2620 C   0  0  0  0  0  0  0  0  0  0  0  0
    4.3480   10.6610   55.7300 N   0  0  0  0  0  0  0  0  0  0  0  0
    1.8070    6.0240   51.7890 N   0  0  0  0  0  0  0  0  0  0  0  0
    3.2720    6.4250   50.0880 O   0  0  0  0  0  0  0  0  0  0  0  0
   -0.6530    0.1130   49.5340 O   0  0  0  0  0  0  0  0  0  0  0  0
    1.0120   -0.1950   47.8010 O   0  0  0  0  0  0  0  0  0  0  0  0
    6.1870   10.0060   54.1100 O   0  0  0  0  0  0  0  0  0  0  0  0
    4.5500   11.6360   53.3940 O   0  0  0  0  0  0  0  0  0  0  0  0
    0.7090    0.1640   49.1440 S   0  0  0  0  0  0  0  0  0  0  0  0
    4.8380   10.4600   54.1500 S   0  0  0  0  0  0  0  0  0  0  0  0
  1  5  2  0
  1  9  1  0
  2  6  1  0
  2  9  2  0
  3  7  2  0
  3 10  1  0
  4  8  1  0
  4 10  2  0
  5 11  1  0
  6 11  2  0
  7 12  1  0
  8 12  2  0
  9 13  1  0
 10 21  1  0
 11 27  1  0
 12 28  1  0
 13 21  1  0
 13 22  2  0
 14 15  1  0
 14 16  1  0
 15 17  1  0
 16 18  1  0
 17 20  1  0
 18 20  1  0
 19 27  1  0
 20 28  1  0
 23 27  2  0
 24 27  2  0
 25 28  2  0
 26 28  2  0
M  END
>  <washed_aromatic_smiles>  (343) 
CS(=O)(=O)c1ccc(cc1)C(=O)Nc2ccc(cc2)S(=O)(=O)N3CCCCC3

>  <name>  (343) 
neg35175

$$$$
neg5293
     RDKit          3D

 33 36  0  0  1  0  0  0  0  0999 V2000
    0.4820    1.2100   45.8890 C   0  0  0  0  0  0  0  0  0  0  0  0
    1.0000   -0.0210   46.3140 C   0  0  0  0  0  0  0  0  0  0  0  0
    0.8670    8.4150   52.4710 C   0  0  0  0  0  0  0  0  0  0  0  0
    1.0420    7.0530   52.2920 C   0  0  0  0  0  0  0  0  0  0  0  0
    0.2770    2.2140   46.8110 C   0  0  0  0  0  0  0  0  0  0  0  0
    1.1710   -0.2920   47.6570 C   0  0  0  0  0  0  0  0  0  0  0  0
    1.9500    9.2120   52.8320 C   0  0  0  0  0  0  0  0  0  0  0  0
    3.3130    7.3060   53.0810 C   0  0  0  0  0  0  0  0  0  0  0  0
    2.3010    6.5070   52.5290 C   0  0  0  0  0  0  0  0  0  0  0  0
    0.7590    2.0500   48.0980 C   0  0  0  0  0  0  0  0  0  0  0  0
    1.1110    0.7960   48.5240 C   0  0  0  0  0  0  0  0  0  0  0  0
    3.1660    8.6670   53.2280 C   0  0  0  0  0  0  0  0  0  0  0  0
    1.7180    2.3360   49.9430 C   0  0  0  0  0  0  0  0  0  0  0  0
    2.6380    5.1240   52.2840 C   0  0  0  0  0  0  0  0  0  0  0  0
    5.3910    9.5330   58.4040 C   0  0  0  0  0  0  0  0  0  0  0  0
    5.1850   10.9410   57.8030 C   0  0  0  0  0  0  0  0  0  0  0  0
    5.8260    8.4270   57.4230 C   0  0  0  0  0  0  0  0  0  0  0  0
    3.8470   11.1500   57.0810 C   0  0  0  0  0  0  0  0  0  0  0  0
    4.9560    8.1670   56.1790 C   0  0  0  0  0  0  0  0  0  0  0  0
    3.3400    9.9140   56.3520 C   0  0  0  0  0  0  0  0  0  0  0  0
    2.5300   -1.3340   52.3030 C   0  0  0  0  0  0  0  0  0  0  0  0
    3.2190    1.8940   51.9930 C   0  0  0  0  0  0  0  0  0  0  0  0
    2.5270    1.1960   53.1640 C   0  0  0  0  0  0  0  0  0  0  0  0
    2.5430    2.9520   51.0310 C   0  0  2  0  0  0  0  0  0  0  0  0
    1.1690    2.9980   48.9840 N   0  0  0  0  0  0  0  0  0  0  0  0
    1.6220    0.9890   49.7550 N   0  0  0  0  0  0  0  0  0  0  0  0
    4.4110    9.3610   55.5600 N   0  0  0  0  0  0  0  0  0  0  0  0
    1.9800    4.2640   51.4510 N   0  0  0  0  0  0  0  0  0  0  0  0
    3.5540    4.6750   52.9070 O   0  0  0  0  0  0  0  0  0  0  0  0
    5.7800    9.1240   53.4720 O   0  0  0  0  0  0  0  0  0  0  0  0
    4.3080   11.0180   53.6380 O   0  0  0  0  0  0  0  0  0  0  0  0
    1.3190   -0.0620   52.7390 S   0  0  0  0  0  0  0  0  0  0  0  0
    4.5330    9.6410   53.9200 S   0  0  0  0  0  0  0  0  0  0  0  0
  1  2  2  0
  1  5  1  0
  2  6  1  0
  3  4  2  0
  3  7  1  0
  4  9  1  0
  5 10  2  0
  6 11  2  0
  7 12  2  0
  8  9  2  0
  8 12  1  0
  9 14  1  0
 10 11  1  0
 10 25  1  0
 11 26  1  0
 12 33  1  0
 13 24  1  0
 13 25  2  0
 13 26  1  0
 14 28  1  0
 14 29  2  0
 15 16  1  0
 15 17  1  0
 16 18  1  0
 17 19  1  0
 18 20  1  0
 19 27  1  0
 20 27  1  0
 21 32  1  0
 22 23  1  0
 24 22  1  1
 23 32  1  0
 24 28  1  0
 27 33  1  0
 30 33  2  0
 31 33  2  0
M  END
>  <washed_aromatic_smiles>  (344) 
CSCC[C@@H](c1[nH]c2ccccc2n1)NC(=O)c3cccc(c3)S(=O)(=O)N4CCCCCC4

>  <name>  (344) 
neg5293

$$$$
neg14973
     RDKit          3D

 26 28  0  0  0  0  0  0  0  0999 V2000
    3.2140    4.3270   48.3180 C   0  0  0  0  0  0  0  0  0  0  0  0
    4.0340    8.2690   55.2080 C   0  0  0  0  0  0  0  0  0  0  0  0
    4.0500    7.6030   53.9950 C   0  0  0  0  0  0  0  0  0  0  0  0
    3.3980    5.0250   49.5000 C   0  0  0  0  0  0  0  0  0  0  0  0
    2.3290    3.2550   48.2500 C   0  0  0  0  0  0  0  0  0  0  0  0
    1.8440    3.5240   50.5580 C   0  0  0  0  0  0  0  0  0  0  0  0
    2.8400    8.8080   55.6660 C   0  0  0  0  0  0  0  0  0  0  0  0
    2.8770    7.4480   53.2640 C   0  0  0  0  0  0  0  0  0  0  0  0
    2.6650    4.6540   50.6280 C   0  0  0  0  0  0  0  0  0  0  0  0
    1.7270    2.7700   49.4050 C   0  0  0  0  0  0  0  0  0  0  0  0
    1.7260    8.0990   53.7620 C   0  0  0  0  0  0  0  0  0  0  0  0
    2.8940    6.7630   51.9770 C   0  0  0  0  0  0  0  0  0  0  0  0
    2.8310    1.3680   53.1360 C   0  0  0  0  0  0  0  0  0  0  0  0
    1.5640    0.5030   53.1650 C   0  0  0  0  0  0  0  0  0  0  0  0
    3.8150    0.7370   52.1660 C   0  0  0  0  0  0  0  0  0  0  0  0
    1.2750   -0.2360   51.8560 C   0  0  0  0  0  0  0  0  0  0  0  0
    3.3190    0.4510   50.7540 C   0  0  0  0  0  0  0  0  0  0  0  0
   -0.0660    6.5970   52.1610 C   0  0  0  0  0  0  0  0  0  0  0  0
    1.7280    8.7250   54.9540 N   0  0  0  0  0  0  0  0  0  0  0  0
    1.8820    0.3460   50.6670 N   0  0  0  0  0  0  0  0  0  0  0  0
    2.7660    5.3750   51.8720 N   0  0  0  0  0  0  0  0  0  0  0  0
    3.0080    7.3890   50.9450 O   0  0  0  0  0  0  0  0  0  0  0  0
   -0.3460    1.1820   49.9570 O   0  0  0  0  0  0  0  0  0  0  0  0
    1.1800    0.4760   48.2350 O   0  0  0  0  0  0  0  0  0  0  0  0
    0.2530    8.2400   52.8650 S   0  0  0  0  0  0  0  0  0  0  0  0
    0.9900    1.1120   49.4950 S   0  0  0  0  0  0  0  0  0  0  0  0
  1  4  2  0
  1  5  1  0
  2  3  2  0
  2  7  1  0
  3  8  1  0
  4  9  1  0
  5 10  2  0
  6  9  2  0
  6 10  1  0
  7 19  2  0
  8 11  2  0
  8 12  1  0
  9 21  1  0
 10 26  1  0
 11 19  1  0
 11 25  1  0
 12 21  1  0
 12 22  2  0
 13 14  1  0
 13 15  1  0
 14 16  1  0
 15 17  1  0
 16 20  1  0
 17 20  1  0
 18 25  1  0
 20 26  1  0
 23 26  2  0
 24 26  2  0
M  END
>  <washed_aromatic_smiles>  (345) 
CSc1c(cccn1)C(=O)Nc2cccc(c2)S(=O)(=O)N3CCCCC3

>  <name>  (345) 
neg14973

$$$$
neg141799
     RDKit          3D

 26 29  0  0  0  0  0  0  0  0999 V2000
    5.8110    4.0290   60.6100 C   0  0  0  0  0  0  0  0  0  0  0  0
    5.9660   13.7980   57.9750 C   0  0  0  0  0  0  0  0  0  0  0  0
    5.7110    3.7990   59.2450 C   0  0  0  0  0  0  0  0  0  0  0  0
    5.7110    5.3260   61.0960 C   0  0  0  0  0  0  0  0  0  0  0  0
    5.9670   12.9800   59.0980 C   0  0  0  0  0  0  0  0  0  0  0  0
    5.6310   13.2640   56.7350 C   0  0  0  0  0  0  0  0  0  0  0  0
    5.5050    4.8590   58.3690 C   0  0  0  0  0  0  0  0  0  0  0  0
    5.5110    6.3830   60.2180 C   0  0  0  0  0  0  0  0  0  0  0  0
    5.6180   11.6410   58.9820 C   0  0  0  0  0  0  0  0  0  0  0  0
    5.3570   11.9180   56.6100 C   0  0  0  0  0  0  0  0  0  0  0  0
    1.6710    8.3650   54.8120 C   0  0  0  0  0  0  0  0  0  0  0  0
    3.5340    7.2980   53.7240 C   0  0  0  0  0  0  0  0  0  0  0  0
    0.8370    7.9720   53.7800 C   0  0  0  0  0  0  0  0  0  0  0  0
    2.7050    6.8780   52.6990 C   0  0  0  0  0  0  0  0  0  0  0  0
    4.4210    7.1280   56.7180 C   0  0  0  0  0  0  0  0  0  0  0  0
    3.9790    9.4380   56.5390 C   0  0  0  0  0  0  0  0  0  0  0  0
    3.0090    7.9560   54.8410 C   0  0  0  0  0  0  0  0  0  0  0  0
    5.4040    6.1830   58.8320 C   0  0  0  0  0  0  0  0  0  0  0  0
    5.3280   11.0810   57.7340 C   0  0  0  0  0  0  0  0  0  0  0  0
    3.8130    8.1700   56.0270 C   0  0  0  0  0  0  0  0  0  0  0  0
    1.3430    7.1570   52.7660 C   0  0  0  0  0  0  0  0  0  0  0  0
    5.1160    7.3040   57.8990 C   0  0  0  0  0  0  0  0  0  0  0  0
    4.9340    9.6920   57.5120 C   0  0  0  0  0  0  0  0  0  0  0  0
    6.8120    8.7070   58.8200 C   0  0  0  0  0  0  0  0  0  0  0  0
    5.5350    8.5890   58.1350 N   0  0  0  0  0  0  0  0  0  0  0  0
    0.2790    6.4300   51.6310 Cl  0  0  0  0  0  0  0  0  0  0  0  0
  1  3  2  0
  1  4  1  0
  2  5  2  0
  2  6  1  0
  3  7  1  0
  4  8  2  0
  5  9  1  0
  6 10  2  0
  7 18  2  0
  8 18  1  0
  9 19  2  0
 10 19  1  0
 11 13  2  0
 11 17  1  0
 12 14  1  0
 12 17  2  0
 13 21  1  0
 14 21  2  0
 15 20  2  0
 15 22  1  0
 16 20  1  0
 16 23  2  0
 17 20  1  0
 18 22  1  0
 19 23  1  0
 21 26  1  0
 22 25  2  0
 23 25  1  0
 24 25  1  0
M  CHG  1  25   1
M  END
>  <washed_aromatic_smiles>  (346) 
C[n+]1c(cc(cc1c2ccccc2)c3ccc(cc3)Cl)c4ccccc4

>  <name>  (346) 
neg141799

$$$$
neg88214
     RDKit          3D

 25 27  0  0  0  0  0  0  0  0999 V2000
    2.9650    6.4070   50.0880 C   0  0  0  0  0  0  0  0  0  0  0  0
    1.5180    3.9850   48.2540 C   0  0  0  0  0  0  0  0  0  0  0  0
    3.0640    7.2800   51.1580 C   0  0  0  0  0  0  0  0  0  0  0  0
    1.0550    2.7380   47.7990 C   0  0  0  0  0  0  0  0  0  0  0  0
    3.2460    5.4440   52.6400 C   0  0  0  0  0  0  0  0  0  0  0  0
    2.3290    1.6630   49.5120 C   0  0  0  0  0  0  0  0  0  0  0  0
    2.6750    5.0840   50.3360 C   0  0  0  0  0  0  0  0  0  0  0  0
    2.2410    4.0380   49.4510 C   0  0  0  0  0  0  0  0  0  0  0  0
    2.9250    4.5730   51.6010 C   0  0  0  0  0  0  0  0  0  0  0  0
    2.5400    2.8660   50.0880 C   0  0  0  0  0  0  0  0  0  0  0  0
    3.1170    6.8210   52.4660 C   0  0  0  0  0  0  0  0  0  0  0  0
    1.4330    1.5610   48.4650 C   0  0  0  0  0  0  0  0  0  0  0  0
    2.9070    3.0430   51.5180 C   0  0  0  0  0  0  0  0  0  0  0  0
    1.0880    9.2930   52.6630 C   0  0  0  0  0  0  0  0  0  0  0  0
    0.5970    8.1080   54.6210 C   0  0  0  0  0  0  0  0  0  0  0  0
    1.8490   -1.1430   50.5870 C   0  0  0  0  0  0  0  0  0  0  0  0
   -0.1520    0.2400   50.8950 C   0  0  0  0  0  0  0  0  0  0  0  0
    1.6550    8.7150   53.8530 N   0  0  0  0  0  0  0  0  0  0  0  0
    0.6270   -0.5660   49.9300 N   0  0  0  0  0  0  0  0  0  0  0  0
    3.4750    7.3860   55.0200 O   0  0  0  0  0  0  0  0  0  0  0  0
    4.1180    9.0650   53.4030 O   0  0  0  0  0  0  0  0  0  0  0  0
   -0.7070    0.1840   47.9040 O   0  0  0  0  0  0  0  0  0  0  0  0
    1.4030   -0.9040   47.5120 O   0  0  0  0  0  0  0  0  0  0  0  0
    3.1940    8.0510   53.7910 S   0  0  0  0  0  0  0  0  0  0  0  0
    0.6280   -0.0360   48.3310 S   0  0  0  0  0  0  0  0  0  0  0  0
  1  3  2  0
  1  7  1  0
  2  4  1  0
  2  8  2  0
  3 11  1  0
  4 12  2  0
  5  9  1  0
  5 11  2  0
  6 10  2  0
  6 12  1  0
  7  8  1  0
  7  9  2  0
  8 10  1  0
  9 13  1  0
 10 13  1  0
 11 24  1  0
 12 25  1  0
 14 18  1  0
 15 18  1  0
 16 19  1  0
 17 19  1  0
 18 24  1  0
 19 25  1  0
 20 24  2  0
 21 24  2  0
 22 25  2  0
 23 25  2  0
M  END
>  <washed_aromatic_smiles>  (347) 
CN(C)S(=O)(=O)c1ccc-2c(c1)Cc3c2ccc(c3)S(=O)(=O)N(C)C

>  <name>  (347) 
neg88214

$$$$
neg85107
     RDKit          3D

 32 33  0  0  0  0  0  0  0  0999 V2000
    3.4610   10.0500   57.4600 C   0  0  0  0  0  0  0  0  0  0  0  0
    0.7670    1.8500   48.0340 C   0  0  0  0  0  0  0  0  0  0  0  0
    2.5610    9.2420   56.7710 C   0  0  0  0  0  0  0  0  0  0  0  0
    1.2460    3.1450   48.1860 C   0  0  0  0  0  0  0  0  0  0  0  0
    4.3870   10.8130   56.7850 C   0  0  0  0  0  0  0  0  0  0  0  0
    1.1590    0.8510   48.9250 C   0  0  0  0  0  0  0  0  0  0  0  0
    3.6230    9.8630   54.7180 C   0  0  0  0  0  0  0  0  0  0  0  0
    2.5020    2.4400   50.1160 C   0  0  0  0  0  0  0  0  0  0  0  0
    2.6500    9.1220   55.3800 C   0  0  0  0  0  0  0  0  0  0  0  0
    2.0850    3.4520   49.2560 C   0  0  0  0  0  0  0  0  0  0  0  0
    4.4420   10.7480   55.4060 C   0  0  0  0  0  0  0  0  0  0  0  0
    2.0620    1.1350   49.9560 C   0  0  0  0  0  0  0  0  0  0  0  0
    1.7450    8.3100   54.5750 C   0  0  0  0  0  0  0  0  0  0  0  0
    2.5060    4.8060   49.5460 C   0  0  0  0  0  0  0  0  0  0  0  0
    6.4180    9.2370   53.8780 C   0  0  0  0  0  0  0  0  0  0  0  0
    5.8810   10.7130   52.0860 C   0  0  0  0  0  0  0  0  0  0  0  0
    0.9820    0.3210   52.9920 C   0  0  0  0  0  0  0  0  0  0  0  0
    3.1240    1.3550   53.2130 C   0  0  0  0  0  0  0  0  0  0  0  0
    1.5670    6.9730   52.4770 C   0  0  0  0  0  0  0  0  0  0  0  0
    2.5130    6.3970   51.4260 C   0  0  0  0  0  0  0  0  0  0  0  0
    2.3100    7.6470   53.5220 N   0  0  0  0  0  0  0  0  0  0  0  0
    1.8870    5.3670   50.6260 N   0  0  0  0  0  0  0  0  0  0  0  0
    6.2800   10.6610   53.4730 N   0  0  0  0  0  0  0  0  0  0  0  0
    2.3630    0.2990   52.5690 N   0  0  0  0  0  0  0  0  0  0  0  0
    0.5380    8.2220   54.7720 O   0  0  0  0  0  0  0  0  0  0  0  0
    3.3980    5.3960   48.9430 O   0  0  0  0  0  0  0  0  0  0  0  0
    4.8450   12.7600   53.8040 O   0  0  0  0  0  0  0  0  0  0  0  0
    6.5250   12.2690   55.4540 O   0  0  0  0  0  0  0  0  0  0  0  0
    2.0440   -1.3610   50.6990 O   0  0  0  0  0  0  0  0  0  0  0  0
    4.1430   -0.1730   50.8540 O   0  0  0  0  0  0  0  0  0  0  0  0
    5.5790   11.7690   54.5210 S   0  0  0  0  0  0  0  0  0  0  0  0
    2.7280   -0.1580   51.0150 S   0  0  0  0  0  0  0  0  0  0  0  0
  1  3  2  0
  1  5  1  0
  2  4  2  0
  2  6  1  0
  3  9  1  0
  4 10  1  0
  5 11  2  0
  6 12  2  0
  7  9  2  0
  7 11  1  0
  8 10  2  0
  8 12  1  0
  9 13  1  0
 10 14  1  0
 11 31  1  0
 12 32  1  0
 13 21  1  0
 13 25  2  0
 14 22  1  0
 14 26  2  0
 15 23  1  0
 16 23  1  0
 17 24  1  0
 18 24  1  0
 19 20  1  0
 19 21  1  0
 20 22  1  0
 23 31  1  0
 24 32  1  0
 27 31  2  0
 28 31  2  0
 29 32  2  0
 30 32  2  0
M  END
>  <washed_aromatic_smiles>  (348) 
CN(C)S(=O)(=O)c1cccc(c1)C(=O)NCCNC(=O)c2cccc(c2)S(=O)(=O)N(C)C

>  <name>  (348) 
neg85107

$$$$
neg133751
     RDKit          3D

 27 28  0  0  0  0  0  0  0  0999 V2000
    0.0850    0.3420   48.4080 C   0  0  0  0  0  0  0  0  0  0  0  0
    0.4170    1.6330   48.0220 C   0  0  0  0  0  0  0  0  0  0  0  0
    0.7970    7.7450   53.6110 C   0  0  0  0  0  0  0  0  0  0  0  0
    3.1810    7.2960   53.5190 C   0  0  0  0  0  0  0  0  0  0  0  0
    0.9890    8.4860   54.7640 C   0  0  0  0  0  0  0  0  0  0  0  0
    3.3840    8.0990   54.6320 C   0  0  0  0  0  0  0  0  0  0  0  0
    0.7850   -0.2810   49.4330 C   0  0  0  0  0  0  0  0  0  0  0  0
    2.1670    1.6560   49.6680 C   0  0  0  0  0  0  0  0  0  0  0  0
    1.4440    2.3220   48.6760 C   0  0  0  0  0  0  0  0  0  0  0  0
    1.8870    7.1240   53.0210 C   0  0  0  0  0  0  0  0  0  0  0  0
    2.2810    8.6830   55.2620 C   0  0  0  0  0  0  0  0  0  0  0  0
    1.8220    0.3810   50.0830 C   0  0  0  0  0  0  0  0  0  0  0  0
    1.7320    3.7100   48.3330 C   0  0  0  0  0  0  0  0  0  0  0  0
    2.4410    5.9810   50.9230 C   0  0  0  0  0  0  0  0  0  0  0  0
    1.1800    0.3740   53.3260 C   0  0  0  0  0  0  0  0  0  0  0  0
    3.0510    1.7910   52.8700 C   0  0  0  0  0  0  0  0  0  0  0  0
    3.6910    9.8210   56.9890 C   0  0  0  0  0  0  0  0  0  0  0  0
    2.4080    4.5720   50.4310 C   0  0  0  0  0  0  0  0  0  0  0  0
    1.6230    6.2140   51.9860 N   0  0  0  0  0  0  0  0  0  0  0  0
    2.4980    0.4660   52.7340 N   0  0  0  0  0  0  0  0  0  0  0  0
    1.1530    4.3080   47.4660 O   0  0  0  0  0  0  0  0  0  0  0  0
    3.2020    6.8210   50.5000 O   0  0  0  0  0  0  0  0  0  0  0  0
    2.2990   -1.7120   51.5620 O   0  0  0  0  0  0  0  0  0  0  0  0
    4.1650   -0.2780   50.9980 O   0  0  0  0  0  0  0  0  0  0  0  0
    2.4230    9.4420   56.4110 O   0  0  0  0  0  0  0  0  0  0  0  0
    2.6170    4.4360   49.0220 O   0  0  0  0  0  0  0  0  0  0  0  0
    2.7950   -0.4030   51.3640 S   0  0  0  0  0  0  0  0  0  0  0  0
  1  2  2  0
  1  7  1  0
  2  9  1  0
  3  5  2  0
  3 10  1  0
  4  6  1  0
  4 10  2  0
  5 11  1  0
  6 11  2  0
  7 12  2  0
  8  9  2  0
  8 12  1  0
  9 13  1  0
 10 19  1  0
 11 25  1  0
 12 27  1  0
 13 21  2  0
 13 26  1  0
 14 18  1  0
 14 19  1  0
 14 22  2  0
 15 20  1  0
 16 20  1  0
 17 25  1  0
 18 26  1  0
 20 27  1  0
 23 27  2  0
 24 27  2  0
M  END
>  <washed_aromatic_smiles>  (349) 
CN(C)S(=O)(=O)c1cccc(c1)C(=O)OCC(=O)Nc2ccc(cc2)OC

>  <name>  (349) 
neg133751

$$$$
neg83769
     RDKit          3D

 28 30  0  0  0  0  0  0  0  0999 V2000
    0.4340    0.7010   46.8290 C   0  0  0  0  0  0  0  0  0  0  0  0
    2.8900    6.6680   50.6580 C   0  0  0  0  0  0  0  0  0  0  0  0
    0.3320    2.0660   47.0020 C   0  0  0  0  0  0  0  0  0  0  0  0
    0.8890   -0.0980   47.8670 C   0  0  0  0  0  0  0  0  0  0  0  0
    1.8050    6.1370   51.3380 C   0  0  0  0  0  0  0  0  0  0  0  0
    3.5740    5.8930   49.7320 C   0  0  0  0  0  0  0  0  0  0  0  0
    3.2610   -1.1130   54.3440 C   0  0  0  0  0  0  0  0  0  0  0  0
    0.8540    2.6670   48.1350 C   0  0  0  0  0  0  0  0  0  0  0  0
    1.3170    0.4910   49.0410 C   0  0  0  0  0  0  0  0  0  0  0  0
    1.4650    4.8050   51.1510 C   0  0  0  0  0  0  0  0  0  0  0  0
    3.2500    4.5580   49.5730 C   0  0  0  0  0  0  0  0  0  0  0  0
    2.7710   -0.2170   53.4400 C   0  0  0  0  0  0  0  0  0  0  0  0
    3.7570   -0.6980   55.5760 C   0  0  0  0  0  0  0  0  0  0  0  0
    3.1080    1.5320   55.0900 C   0  0  0  0  0  0  0  0  0  0  0  0
    1.3770    1.8770   49.1510 C   0  0  0  0  0  0  0  0  0  0  0  0
    2.2540    3.9790   50.3530 C   0  0  0  0  0  0  0  0  0  0  0  0
    2.7850    1.1200   53.7820 C   0  0  0  0  0  0  0  0  0  0  0  0
    3.7100    0.6290   55.9720 C   0  0  0  0  0  0  0  0  0  0  0  0
    1.7780    1.8040   51.6470 C   0  0  0  0  0  0  0  0  0  0  0  0
    5.2060   -1.2640   58.7250 C   0  0  0  0  0  0  0  0  0  0  0  0
    6.7100   -0.5280   56.9640 C   0  0  0  0  0  0  0  0  0  0  0  0
    2.1090    2.4640   50.3290 C   0  0  0  0  0  0  0  0  0  0  0  0
    2.6730    1.9980   52.6870 N   0  0  0  0  0  0  0  0  0  0  0  0
    5.6400   -0.1370   57.8870 N   0  0  0  0  0  0  0  0  0  0  0  0
    0.7630    1.1470   51.8340 O   0  0  0  0  0  0  0  0  0  0  0  0
    5.3250    2.2880   57.2410 O   0  0  0  0  0  0  0  0  0  0  0  0
    3.6270    1.2150   58.5640 O   0  0  0  0  0  0  0  0  0  0  0  0
    4.5770    1.1120   57.5130 S   0  0  0  0  0  0  0  0  0  0  0  0
  1  3  2  0
  1  4  1  0
  2  5  2  0
  2  6  1  0
  3  8  1  0
  4  9  2  0
  5 10  1  0
  6 11  2  0
  7 12  2  0
  7 13  1  0
  8 15  2  0
  9 15  1  0
 10 16  2  0
 11 16  1  0
 12 17  1  0
 13 18  2  0
 14 17  2  0
 14 18  1  0
 15 22  1  0
 16 22  1  0
 17 23  1  0
 18 28  1  0
 19 22  1  0
 19 23  1  0
 19 25  2  0
 20 24  1  0
 21 24  1  0
 24 28  1  0
 26 28  2  0
 27 28  2  0
M  END
>  <washed_aromatic_smiles>  (350) 
CN(C)S(=O)(=O)c1cccc(c1)NC(=O)C(c2ccccc2)c3ccccc3

>  <name>  (350) 
neg83769

$$$$
neg134952
     RDKit          3D

 25 27  0  0  0  0  0  0  0  0999 V2000
    1.5490    3.4480   49.0290 C   0  0  0  0  0  0  0  0  0  0  0  0
    3.4160    8.8840   52.6360 C   0  0  0  0  0  0  0  0  0  0  0  0
    3.8410    9.8340   53.5320 C   0  0  0  0  0  0  0  0  0  0  0  0
    1.7650    4.4870   49.9260 C   0  0  0  0  0  0  0  0  0  0  0  0
    1.8850    2.1420   49.3720 C   0  0  0  0  0  0  0  0  0  0  0  0
    3.4510    7.1890   54.3210 C   0  0  0  0  0  0  0  0  0  0  0  0
    2.7190    2.9200   51.4950 C   0  0  0  0  0  0  0  0  0  0  0  0
    4.7010   10.0480   56.9970 C   0  0  0  0  0  0  0  0  0  0  0  0
    4.5130    8.7030   57.4020 C   0  0  0  0  0  0  0  0  0  0  0  0
    3.2300    7.5310   52.9930 C   0  0  0  0  0  0  0  0  0  0  0  0
    4.0740    9.4860   54.8740 C   0  0  0  0  0  0  0  0  0  0  0  0
    3.8730    8.1480   55.2720 C   0  0  0  0  0  0  0  0  0  0  0  0
    2.3750    4.2280   51.1600 C   0  0  0  0  0  0  0  0  0  0  0  0
    2.4670    1.8720   50.6110 C   0  0  0  0  0  0  0  0  0  0  0  0
    2.9200    6.5790   51.9000 C   0  0  0  0  0  0  0  0  0  0  0  0
    0.8630    0.4750   52.9100 C   0  0  0  0  0  0  0  0  0  0  0  0
    2.7310   -0.7960   53.6560 C   0  0  0  0  0  0  0  0  0  0  0  0
    4.4960   10.4340   55.7750 N   0  0  0  0  0  0  0  0  0  0  0  0
    4.1170    7.7810   56.5780 N   0  0  0  0  0  0  0  0  0  0  0  0
    2.6530    5.2410   52.1420 N   0  0  0  0  0  0  0  0  0  0  0  0
    2.2640    0.1980   52.7070 N   0  0  0  0  0  0  0  0  0  0  0  0
    2.9710    6.9210   50.7290 O   0  0  0  0  0  0  0  0  0  0  0  0
    2.0440   -0.7110   50.3740 O   0  0  0  0  0  0  0  0  0  0  0  0
    4.2320    0.0190   51.1220 O   0  0  0  0  0  0  0  0  0  0  0  0
    2.8210    0.2020   51.1470 S   0  0  0  0  0  0  0  0  0  0  0  0
  1  4  2  0
  1  5  1  0
  2  3  2  0
  2 10  1  0
  3 11  1  0
  4 13  1  0
  5 14  2  0
  6 10  2  0
  6 12  1  0
  7 13  2  0
  7 14  1  0
  8  9  1  0
  8 18  2  0
  9 19  2  0
 10 15  1  0
 11 12  2  0
 11 18  1  0
 12 19  1  0
 13 20  1  0
 14 25  1  0
 15 20  1  0
 15 22  2  0
 16 21  1  0
 17 21  1  0
 21 25  1  0
 23 25  2  0
 24 25  2  0
M  END
>  <washed_aromatic_smiles>  (351) 
CN(C)S(=O)(=O)c1cccc(c1)NC(=O)c2ccc3c(c2)nccn3

>  <name>  (351) 
neg134952

$$$$
neg87002
     RDKit          3D

 31 33  0  0  0  0  0  0  0  0999 V2000
    3.3440    4.7920   48.0770 C   0  0  0  0  0  0  0  0  0  0  0  0
    2.5820    3.7190   47.5800 C   0  0  0  0  0  0  0  0  0  0  0  0
    3.7390    4.8040   49.3770 C   0  0  0  0  0  0  0  0  0  0  0  0
   -0.3250    6.7860   52.2990 C   0  0  0  0  0  0  0  0  0  0  0  0
    6.6350    8.7160   54.2840 C   0  0  0  0  0  0  0  0  0  0  0  0
    0.6910    7.6860   52.3190 C   0  0  0  0  0  0  0  0  0  0  0  0
   -0.0820    5.4700   52.1790 C   0  0  0  0  0  0  0  0  0  0  0  0
    5.5140    8.2080   54.9150 C   0  0  0  0  0  0  0  0  0  0  0  0
    2.1860    2.6720   48.3570 C   0  0  0  0  0  0  0  0  0  0  0  0
    3.3070    3.7610   50.1460 C   0  0  0  0  0  0  0  0  0  0  0  0
    6.5410    9.9160   53.5970 C   0  0  0  0  0  0  0  0  0  0  0  0
    2.2010    5.8200   51.9100 C   0  0  0  0  0  0  0  0  0  0  0  0
    4.1960    9.9460   54.0060 C   0  0  0  0  0  0  0  0  0  0  0  0
    1.9520    7.1330   52.2450 C   0  0  0  0  0  0  0  0  0  0  0  0
    1.1060    4.9650   51.6550 C   0  0  0  0  0  0  0  0  0  0  0  0
    4.3060    8.6700   54.4620 C   0  0  0  0  0  0  0  0  0  0  0  0
    2.5450    2.7410   49.6580 C   0  0  0  0  0  0  0  0  0  0  0  0
    5.3330   10.5860   53.6280 C   0  0  0  0  0  0  0  0  0  0  0  0
    3.0000    7.9580   52.6430 C   0  0  0  0  0  0  0  0  0  0  0  0
    5.7290   12.0160   56.1950 C   0  0  0  0  0  0  0  0  0  0  0  0
    4.5360   13.9070   55.5130 C   0  0  0  0  0  0  0  0  0  0  0  0
    3.3390    7.8240   53.9860 N   0  0  0  0  0  0  0  0  0  0  0  0
    0.9890    3.7160   51.1810 N   0  0  0  0  0  0  0  0  0  0  0  0
    4.8870   12.5960   55.1630 N   0  0  0  0  0  0  0  0  0  0  0  0
    3.4690    8.7610   51.8520 O   0  0  0  0  0  0  0  0  0  0  0  0
    2.2750    1.6720   51.9710 O   0  0  0  0  0  0  0  0  0  0  0  0
    0.4720    1.3800   50.3310 O   0  0  0  0  0  0  0  0  0  0  0  0
    6.4650   12.7860   53.2140 O   0  0  0  0  0  0  0  0  0  0  0  0
    4.1300   12.7040   52.7500 O   0  0  0  0  0  0  0  0  0  0  0  0
    1.5070    2.2110   50.8830 S   0  0  2  0  0  0  0  0  0  0  0  0
    5.2060   12.2990   53.5680 S   0  0  0  0  0  0  0  0  0  0  0  0
  1  2  2  0
  1  3  1  0
  2  9  1  0
  3 10  2  0
  4  6  2  0
  4  7  1  0
  5  8  2  0
  5 11  1  0
  6 14  1  0
  7 15  2  0
  8 16  1  0
  9 17  2  0
 10 17  1  0
 11 18  2  0
 12 14  2  0
 12 15  1  0
 13 16  2  0
 13 18  1  0
 14 19  1  0
 15 23  1  0
 16 22  1  0
 17 30  1  0
 18 31  1  0
 19 22  1  0
 19 25  2  0
 20 24  1  0
 21 24  1  0
 23 30  2  0
 24 31  1  0
 26 30  2  0
 30 27  1  6
 28 31  2  0
 29 31  2  0
M  CHG  1  27  -1
M  END
>  <washed_aromatic_smiles>  (352) 
CN(C)S(=O)(=O)c1cccc(c1)NC(=O)c2cccc(c2)NS(=O)(=O)c3ccccc3

>  <name>  (352) 
neg87002

$$$$
neg166342
     RDKit          3D

 26 28  0  0  0  0  0  0  0  0999 V2000
    6.0470   12.7840   59.1410 C   0  0  0  0  0  0  0  0  0  0  0  0
    6.0410   13.5180   57.9680 C   0  0  0  0  0  0  0  0  0  0  0  0
    5.7190   11.4370   59.1000 C   0  0  0  0  0  0  0  0  0  0  0  0
    5.6940   12.9070   56.7680 C   0  0  0  0  0  0  0  0  0  0  0  0
    5.3630   10.8240   57.9100 C   0  0  0  0  0  0  0  0  0  0  0  0
    2.5570    4.9560   49.0170 C   0  0  0  0  0  0  0  0  0  0  0  0
    2.4170    3.9940   51.2280 C   0  0  0  0  0  0  0  0  0  0  0  0
    2.1130    3.7620   48.4640 C   0  0  0  0  0  0  0  0  0  0  0  0
    1.9820    2.7920   50.6780 C   0  0  0  0  0  0  0  0  0  0  0  0
    5.3180   11.5520   56.7210 C   0  0  0  0  0  0  0  0  0  0  0  0
    2.6580    5.0900   50.4020 C   0  0  0  0  0  0  0  0  0  0  0  0
    1.7820    2.6750   49.2890 C   0  0  0  0  0  0  0  0  0  0  0  0
    2.5670    6.9880   52.0730 C   0  0  0  0  0  0  0  0  0  0  0  0
    5.6910   10.1170   54.5220 C   0  0  0  0  0  0  0  0  0  0  0  0
    3.5800    9.9450   55.7670 C   0  0  0  0  0  0  0  0  0  0  0  0
    4.9150    9.6800   53.2740 C   0  0  0  0  0  0  0  0  0  0  0  0
    2.9510    9.1220   54.6170 C   0  0  0  0  0  0  0  0  0  0  0  0
    4.7670   10.9170   55.4280 C   0  0  0  0  0  0  0  0  0  0  0  0
    0.5050    1.5870   47.4450 C   0  0  0  0  0  0  0  0  0  0  0  0
    0.6850    0.4440   49.5980 C   0  0  0  0  0  0  0  0  0  0  0  0
    3.0560    8.4140   52.3120 C   0  0  0  0  0  0  0  0  0  0  0  0
    3.8650    8.6700   53.5510 N   0  0  0  0  0  0  0  0  0  0  0  0
    3.0310    6.3640   50.9290 N   0  0  0  0  0  0  0  0  0  0  0  0
    1.2540    1.4690   48.7100 N   0  0  0  0  0  0  0  0  0  0  0  0
    1.7430    6.4530   52.7910 O   0  0  0  0  0  0  0  0  0  0  0  0
    4.4140   12.0410   54.5950 O   0  0  0  0  0  0  0  0  0  0  0  0
  1  2  2  0
  1  3  1  0
  2  4  1  0
  3  5  2  0
  4 10  2  0
  5 10  1  0
  6  8  2  0
  6 11  1  0
  7  9  1  0
  7 11  2  0
  8 12  1  0
  9 12  2  0
 10 18  1  0
 11 23  1  0
 12 24  1  0
 13 21  1  0
 13 23  1  0
 13 25  2  0
 14 16  1  0
 14 18  1  0
 15 17  1  0
 15 18  1  0
 16 22  1  0
 17 22  1  0
 18 26  1  0
 19 24  1  0
 20 24  1  0
 21 22  1  0
M  END
>  <washed_aromatic_smiles>  (353) 
CN(C)c1ccc(cc1)NC(=O)CN2CCC(CC2)(c3ccccc3)O

>  <name>  (353) 
neg166342

$$$$
neg103142
     RDKit          3D

 26 28  0  0  0  0  0  0  0  0999 V2000
    5.3530   11.5430   56.3670 C   0  0  0  0  0  0  0  0  0  0  0  0
    5.2720    9.5320   57.7340 C   0  0  0  0  0  0  0  0  0  0  0  0
    2.1620    3.1380   50.7670 C   0  0  0  0  0  0  0  0  0  0  0  0
    1.8350    4.2900   48.6640 C   0  0  0  0  0  0  0  0  0  0  0  0
    1.8090    1.9380   50.1690 C   0  0  0  0  0  0  0  0  0  0  0  0
    1.5110    3.0880   48.0610 C   0  0  0  0  0  0  0  0  0  0  0  0
    5.4930   12.3200   57.5050 C   0  0  0  0  0  0  0  0  0  0  0  0
    5.4450   10.3100   58.8660 C   0  0  0  0  0  0  0  0  0  0  0  0
    5.1820   10.1420   56.4700 C   0  0  0  0  0  0  0  0  0  0  0  0
    2.1140    4.3240   50.0260 C   0  0  0  0  0  0  0  0  0  0  0  0
    1.4180    1.9140   48.8210 C   0  0  0  0  0  0  0  0  0  0  0  0
    5.5270   11.6930   58.7390 C   0  0  0  0  0  0  0  0  0  0  0  0
    2.7280    5.9820   51.8200 C   0  0  0  0  0  0  0  0  0  0  0  0
    3.9500   10.0530   54.4480 C   0  0  0  0  0  0  0  0  0  0  0  0
    4.2720    8.0400   55.5380 C   0  0  0  0  0  0  0  0  0  0  0  0
    3.4900    9.3700   53.1680 C   0  0  0  0  0  0  0  0  0  0  0  0
    3.7880    7.3290   54.2530 C   0  0  0  0  0  0  0  0  0  0  0  0
    0.5890   -0.4110   49.0790 C   0  0  0  0  0  0  0  0  0  0  0  0
   -0.0420    0.8800   47.1090 C   0  0  0  0  0  0  0  0  0  0  0  0
    2.5300    7.4600   52.1200 C   0  0  0  0  0  0  0  0  0  0  0  0
    4.8910    9.3610   55.3030 N   0  0  0  0  0  0  0  0  0  0  0  0
    2.8570    8.0880   53.4370 N   0  0  0  0  0  0  0  0  0  0  0  0
    2.2640    5.6190   50.5850 N   0  0  0  0  0  0  0  0  0  0  0  0
    0.9170    0.7250   48.2150 N   0  0  0  0  0  0  0  0  0  0  0  0
    3.2760    5.1740   52.5380 O   0  0  0  0  0  0  0  0  0  0  0  0
    5.6990   12.4570   59.8230 F   0  0  0  0  0  0  0  0  0  0  0  0
  1  7  2  0
  1  9  1  0
  2  8  1  0
  2  9  2  0
  3  5  2  0
  3 10  1  0
  4  6  1  0
  4 10  2  0
  5 11  1  0
  6 11  2  0
  7 12  1  0
  8 12  2  0
  9 21  1  0
 10 23  1  0
 11 24  1  0
 12 26  1  0
 13 20  1  0
 13 23  1  0
 13 25  2  0
 14 16  1  0
 14 21  1  0
 15 17  1  0
 15 21  1  0
 16 22  1  0
 17 22  1  0
 18 24  1  0
 19 24  1  0
 20 22  1  0
M  END
>  <washed_aromatic_smiles>  (354) 
CN(C)c1ccc(cc1)NC(=O)CN2CCN(CC2)c3ccc(cc3)F

>  <name>  (354) 
neg103142

$$$$
neg217100
     RDKit          3D

 27 29  0  0  0  0  0  0  0  0999 V2000
    0.4520    8.5300   55.4250 C   0  0  0  0  0  0  0  0  0  0  0  0
    3.4500    4.7860   48.9130 C   0  0  0  0  0  0  0  0  0  0  0  0
    2.1280    4.3900   48.8000 C   0  0  0  0  0  0  0  0  0  0  0  0
    3.8050    5.7520   49.8470 C   0  0  0  0  0  0  0  0  0  0  0  0
    1.1900    4.9210   49.6680 C   0  0  0  0  0  0  0  0  0  0  0  0
    2.8400    6.2930   50.7170 C   0  0  0  0  0  0  0  0  0  0  0  0
    1.5670    5.7640   50.7080 C   0  0  0  0  0  0  0  0  0  0  0  0
    2.8200    8.8150   54.9530 C   0  0  0  0  0  0  0  0  0  0  0  0
    4.7180   10.0580   54.8220 C   0  0  0  0  0  0  0  0  0  0  0  0
    4.3520    8.7710   56.6450 C   0  0  0  0  0  0  0  0  0  0  0  0
    2.7780    7.4350   51.6240 C   0  0  0  0  0  0  0  0  0  0  0  0
    0.8000    6.4010   51.7610 C   0  0  0  0  0  0  0  0  0  0  0  0
    6.0290   10.4940   52.8710 C   0  0  0  0  0  0  0  0  0  0  0  0
    5.0190   12.3340   54.0900 C   0  0  0  0  0  0  0  0  0  0  0  0
    5.5730    9.1030   58.7560 C   0  0  0  0  0  0  0  0  0  0  0  0
    5.0670    6.8500   57.9640 C   0  0  0  0  0  0  0  0  0  0  0  0
    1.1140    8.5240   53.0870 C   0  0  0  0  0  0  0  0  0  0  0  0
   -0.3050    8.5860   56.2760 N   0  0  0  0  0  0  0  0  0  0  0  0
    3.5820    9.6490   54.2500 N   0  0  0  0  0  0  0  0  0  0  0  0
    3.1960    8.3380   56.1440 N   0  0  0  0  0  0  0  0  0  0  0  0
    5.1310    9.6530   56.0210 N   0  0  0  0  0  0  0  0  0  0  0  0
    1.5810    7.3990   52.2940 N   0  0  0  0  0  0  0  0  0  0  0  0
    1.5460    8.4590   54.4690 N   0  0  0  0  0  0  0  0  0  0  0  0
    5.5220   10.9630   54.1540 N   0  0  0  0  0  0  0  0  0  0  0  0
    4.7400    8.2760   57.8850 N   0  0  0  0  0  0  0  0  0  0  0  0
    3.4200    8.4680   51.6790 O   0  0  0  0  0  0  0  0  0  0  0  0
   -0.3310    6.1940   52.1640 O   0  0  0  0  0  0  0  0  0  0  0  0
  1 18  3  0
  1 23  1  0
  2  3  2  0
  2  4  1  0
  3  5  1  0
  4  6  2  0
  5  7  2  0
  6  7  1  0
  6 11  1  0
  7 12  1  0
  8 19  1  0
  8 20  2  0
  8 23  1  0
  9 19  2  0
  9 21  1  0
  9 24  1  0
 10 20  1  0
 10 21  2  0
 10 25  1  0
 11 22  1  0
 11 26  2  0
 12 22  1  0
 12 27  2  0
 13 24  1  0
 14 24  1  0
 15 25  1  0
 16 25  1  0
 17 22  1  0
 17 23  1  0
M  END
>  <washed_aromatic_smiles>  (355) 
CN(C)c1nc(nc(n1)N(CN2C(=O)c3ccccc3C2=O)C#N)N(C)C

>  <name>  (355) 
neg217100

$$$$
neg325630
     RDKit          3D

 25 26  0  0  0  0  0  0  0  0999 V2000
    3.7480    4.0490   48.0370 C   0  0  0  0  0  0  0  0  0  0  0  0
    4.0780    4.9970   49.0040 C   0  0  0  0  0  0  0  0  0  0  0  0
    2.4330    3.6110   47.9290 C   0  0  0  0  0  0  0  0  0  0  0  0
    3.1150    5.5460   49.8050 C   0  0  0  0  0  0  0  0  0  0  0  0
    1.4820    4.0620   48.8220 C   0  0  0  0  0  0  0  0  0  0  0  0
    1.8320    5.0200   49.7690 C   0  0  0  0  0  0  0  0  0  0  0  0
    5.0650   10.1690   54.2900 C   0  0  0  0  0  0  0  0  0  0  0  0
    3.8640    9.6290   56.0870 C   0  0  0  0  0  0  0  0  0  0  0  0
    2.9680    9.4890   53.9920 C   0  0  0  0  0  0  0  0  0  0  0  0
    1.3200    5.7720   51.9940 C   0  0  0  0  0  0  0  0  0  0  0  0
    6.4760   10.8310   52.4920 C   0  0  0  0  0  0  0  0  0  0  0  0
    6.7010    8.7320   53.9220 C   0  0  0  0  0  0  0  0  0  0  0  0
    4.6090    8.2960   57.8930 C   0  0  0  0  0  0  0  0  0  0  0  0
    4.2400   10.6690   58.1880 C   0  0  0  0  0  0  0  0  0  0  0  0
    0.8100    7.0880   53.9170 C   0  0  0  0  0  0  0  0  0  0  0  0
    0.4490    8.5250   53.8780 C   0  0  0  0  0  0  0  0  0  0  0  0
    4.9900   10.1220   55.6030 N   0  0  0  0  0  0  0  0  0  0  0  0
    4.0720    9.9560   53.4580 N   0  0  0  0  0  0  0  0  0  0  0  0
    2.8330    9.2610   55.3220 N   0  0  0  0  0  0  0  0  0  0  0  0
    0.9160    5.4590   50.7280 N   0  0  0  0  0  0  0  0  0  0  0  0
    6.3060   10.1400   53.7690 N   0  0  0  0  0  0  0  0  0  0  0  0
    3.8290    9.4600   57.4560 N   0  0  0  0  0  0  0  0  0  0  0  0
    2.4270    5.4820   52.4410 O   0  0  0  0  0  0  0  0  0  0  0  0
    0.4010    6.4270   52.7060 O   0  0  0  0  0  0  0  0  0  0  0  0
    1.6890    9.2920   52.8540 S   0  0  0  0  0  0  0  0  0  0  0  0
  1  2  2  0
  1  3  1  0
  2  4  1  0
  3  5  2  0
  4  6  2  0
  5  6  1  0
  6 20  1  0
  7 17  2  0
  7 18  1  0
  7 21  1  0
  8 17  1  0
  8 19  2  0
  8 22  1  0
  9 18  2  0
  9 19  1  0
  9 25  1  0
 10 20  1  0
 10 23  2  0
 10 24  1  0
 11 21  1  0
 12 21  1  0
 13 22  1  0
 14 22  1  0
 15 16  1  0
 15 24  1  0
 16 25  1  0
M  END
>  <washed_aromatic_smiles>  (356) 
CN(C)c1nc(nc(n1)SCCOC(=O)Nc2ccccc2)N(C)C

>  <name>  (356) 
neg325630

$$$$
neg34560
     RDKit          3D

 27 29  0  0  0  0  0  0  0  0999 V2000
    0.5800    8.7020   55.7290 C   0  0  0  0  0  0  0  0  0  0  0  0
    3.1110   -0.1350   51.3800 C   0  0  0  0  0  0  0  0  0  0  0  0
    5.8420    8.7280   58.1380 C   0  0  0  0  0  0  0  0  0  0  0  0
    5.3140    9.9850   58.4640 C   0  0  0  0  0  0  0  0  0  0  0  0
    0.7540    8.3970   54.3950 C   0  0  0  0  0  0  0  0  0  0  0  0
    1.6830    8.9970   56.5310 C   0  0  0  0  0  0  0  0  0  0  0  0
    1.8310    0.0240   51.8810 C   0  0  0  0  0  0  0  0  0  0  0  0
    3.6140    0.7740   50.4550 C   0  0  0  0  0  0  0  0  0  0  0  0
    3.1540    8.4610   54.6850 C   0  0  0  0  0  0  0  0  0  0  0  0
    5.0620    8.1900   57.1610 C   0  0  0  0  0  0  0  0  0  0  0  0
    4.2260   10.1980   57.6770 C   0  0  0  0  0  0  0  0  0  0  0  0
    2.0380    8.2100   53.8700 C   0  0  0  0  0  0  0  0  0  0  0  0
    2.9590    8.8620   56.0030 C   0  0  0  0  0  0  0  0  0  0  0  0
    1.7090    2.1500   50.7580 C   0  0  0  0  0  0  0  0  0  0  0  0
    1.1060    1.1480   51.5060 C   0  0  0  0  0  0  0  0  0  0  0  0
    2.8270    1.8600   50.0240 C   0  0  0  0  0  0  0  0  0  0  0  0
    2.2530    7.7570   52.5030 C   0  0  0  0  0  0  0  0  0  0  0  0
    2.1810    4.4380   51.3710 C   0  0  0  0  0  0  0  0  0  0  0  0
    0.1970    6.3000   52.4010 C   0  0  0  0  0  0  0  0  0  0  0  0
    2.0680    5.8620   50.9050 C   0  0  0  0  0  0  0  0  0  0  0  0
    4.0610    9.0900   56.8770 N   0  0  0  0  0  0  0  0  0  0  0  0
    1.3650    3.5200   50.7670 N   0  0  0  0  0  0  0  0  0  0  0  0
    1.5000    6.7370   51.9280 N   0  0  0  0  0  0  0  0  0  0  0  0
    3.1540    8.2480   51.8460 O   0  0  0  0  0  0  0  0  0  0  0  0
    2.9220    4.0900   52.2650 O   0  0  0  0  0  0  0  0  0  0  0  0
   -0.5420    1.2200   51.8170 Cl  0  0  0  0  0  0  0  0  0  0  0  0
    3.0370    2.9200   48.6220 Cl  0  0  0  0  0  0  0  0  0  0  0  0
  1  5  2  0
  1  6  1  0
  2  7  2  0
  2  8  1  0
  3  4  1  0
  3 10  2  0
  4 11  2  0
  5 12  1  0
  6 13  2  0
  7 15  1  0
  8 16  2  0
  9 12  2  0
  9 13  1  0
 10 21  1  0
 11 21  1  0
 12 17  1  0
 13 21  1  0
 14 15  2  0
 14 16  1  0
 14 22  1  0
 15 26  1  0
 16 27  1  0
 17 23  1  0
 17 24  2  0
 18 20  1  0
 18 22  1  0
 18 25  2  0
 19 23  1  0
 20 23  1  0
M  END
>  <washed_aromatic_smiles>  (357) 
CN(CC(=O)Nc1c(cccc1Cl)Cl)C(=O)c2cccc(c2)n3cccc3

>  <name>  (357) 
neg34560

$$$$
neg138531
     RDKit          3D

 25 26  0  0  0  0  0  0  0  0999 V2000
    2.9660   -1.1550   53.7640 C   0  0  0  0  0  0  0  0  0  0  0  0
    2.3980   -0.5400   52.6640 C   0  0  0  0  0  0  0  0  0  0  0  0
    0.5960    6.5360   51.8510 C   0  0  0  0  0  0  0  0  0  0  0  0
    2.8900    5.7900   51.9370 C   0  0  0  0  0  0  0  0  0  0  0  0
    3.2710   -0.4470   54.9190 C   0  0  0  0  0  0  0  0  0  0  0  0
    0.8530    7.4240   52.8940 C   0  0  0  0  0  0  0  0  0  0  0  0
    3.1370    6.6700   52.9770 C   0  0  0  0  0  0  0  0  0  0  0  0
    2.6340    1.5830   53.7890 C   0  0  0  0  0  0  0  0  0  0  0  0
    1.6240    5.7290   51.3530 C   0  0  0  0  0  0  0  0  0  0  0  0
    2.2060    0.8360   52.6940 C   0  0  0  0  0  0  0  0  0  0  0  0
    3.0880    0.9290   54.9290 C   0  0  0  0  0  0  0  0  0  0  0  0
    2.1290    7.4960   53.4540 C   0  0  0  0  0  0  0  0  0  0  0  0
    2.2410    4.3430   49.3240 C   0  0  0  0  0  0  0  0  0  0  0  0
    2.1040    1.3240   50.3300 C   0  0  0  0  0  0  0  0  0  0  0  0
    0.1830    1.9910   47.1330 C   0  0  0  0  0  0  0  0  0  0  0  0
    4.4410    1.3380   56.9740 C   0  0  0  0  0  0  0  0  0  0  0  0
    1.7250    3.4980   48.1730 C   0  0  0  0  0  0  0  0  0  0  0  0
    1.1670    1.2340   49.1430 C   0  0  0  0  0  0  0  0  0  0  0  0
    1.3420    4.8590   50.2460 N   0  0  0  0  0  0  0  0  0  0  0  0
    1.5690    1.4290   51.5790 N   0  0  0  0  0  0  0  0  0  0  0  0
    0.7060    2.4470   48.4320 N   0  0  0  0  0  0  0  0  0  0  0  0
    3.4210    4.6230   49.3670 O   0  0  0  0  0  0  0  0  0  0  0  0
    3.2970    1.1500   50.2290 O   0  0  0  0  0  0  0  0  0  0  0  0
    3.3690    1.6710   56.0570 O   0  0  0  0  0  0  0  0  0  0  0  0
    2.5420    8.6960   54.8510 Br  0  0  0  0  0  0  0  0  0  0  0  0
  1  2  2  0
  1  5  1  0
  2 10  1  0
  3  6  2  0
  3  9  1  0
  4  7  1  0
  4  9  2  0
  5 11  2  0
  6 12  1  0
  7 12  2  0
  8 10  2  0
  8 11  1  0
  9 19  1  0
 10 20  1  0
 11 24  1  0
 12 25  1  0
 13 17  1  0
 13 19  1  0
 13 22  2  0
 14 18  1  0
 14 20  1  0
 14 23  2  0
 15 21  1  0
 16 24  1  0
 17 21  1  0
 18 21  1  0
M  END
>  <washed_aromatic_smiles>  (358) 
CN(CC(=O)Nc1ccc(cc1)Br)CC(=O)Nc2cccc(c2)OC

>  <name>  (358) 
neg138531

$$$$
neg178981
     RDKit          3D

 26 27  0  0  0  0  0  0  0  0999 V2000
    3.2220    5.3070   52.4580 C   0  0  0  0  0  0  0  0  0  0  0  0
    2.9740    7.1590   50.9840 C   0  0  0  0  0  0  0  0  0  0  0  0
    3.3820    6.1950   53.5040 C   0  0  0  0  0  0  0  0  0  0  0  0
    2.9890    8.0530   52.0630 C   0  0  0  0  0  0  0  0  0  0  0  0
    5.6010   10.6180   56.8150 C   0  0  0  0  0  0  0  0  0  0  0  0
    5.4770   12.4500   58.3650 C   0  0  0  0  0  0  0  0  0  0  0  0
    5.4710   11.4650   55.7420 C   0  0  0  0  0  0  0  0  0  0  0  0
    5.4260   13.3270   57.2800 C   0  0  0  0  0  0  0  0  0  0  0  0
    3.0040    5.7700   51.1650 C   0  0  0  0  0  0  0  0  0  0  0  0
    3.1900    7.5490   53.3370 C   0  0  0  0  0  0  0  0  0  0  0  0
    5.5110   11.0800   58.1180 C   0  0  0  0  0  0  0  0  0  0  0  0
    5.3550   12.8220   55.9740 C   0  0  0  0  0  0  0  0  0  0  0  0
    2.8440    4.8140   50.0670 C   0  0  0  0  0  0  0  0  0  0  0  0
    4.2990    8.1620   55.3690 C   0  0  0  0  0  0  0  0  0  0  0  0
    6.0820    8.8710   59.0160 C   0  0  0  0  0  0  0  0  0  0  0  0
    4.8590    5.7200   57.6880 C   0  0  0  0  0  0  0  0  0  0  0  0
    4.0310    7.9840   56.8690 C   0  0  0  0  0  0  0  0  0  0  0  0
    5.2470    7.6380   59.0330 C   0  0  0  0  0  0  0  0  0  0  0  0
    2.8060    5.2460   48.7770 N   0  0  0  0  0  0  0  0  0  0  0  0
    3.2260    8.3120   54.5190 N   0  0  0  0  0  0  0  0  0  0  0  0
    5.4670   10.1010   59.1460 N   0  0  0  0  0  0  0  0  0  0  0  0
    5.0410    7.1690   57.6570 N   0  0  0  0  0  0  0  0  0  0  0  0
    2.7340    3.6030   50.2330 O   0  0  0  0  0  0  0  0  0  0  0  0
    5.4140    8.1540   54.8780 O   0  0  0  0  0  0  0  0  0  0  0  0
    7.2440    8.7680   58.7060 O   0  0  0  0  0  0  0  0  0  0  0  0
    5.1310   13.7970   54.5920 Cl  0  0  0  0  0  0  0  0  0  0  0  0
  1  3  2  0
  1  9  1  0
  2  4  1  0
  2  9  2  0
  3 10  1  0
  4 10  2  0
  5  7  2  0
  5 11  1  0
  6  8  1  0
  6 11  2  0
  7 12  1  0
  8 12  2  0
  9 13  1  0
 10 20  1  0
 11 21  1  0
 12 26  1  0
 13 19  1  0
 13 23  2  0
 14 17  1  0
 14 20  1  0
 14 24  2  0
 15 18  1  0
 15 21  1  0
 15 25  2  0
 16 22  1  0
 17 22  1  0
 18 22  1  0
M  END
>  <washed_aromatic_smiles>  (359) 
CN(CC(=O)Nc1ccc(cc1)C(=O)N)CC(=O)Nc2ccc(cc2)Cl

>  <name>  (359) 
neg178981

$$$$
neg138822
     RDKit          3D

 32 34  0  0  0  0  0  0  0  0999 V2000
    3.8740    1.3960   56.7410 C   0  0  0  0  0  0  0  0  0  0  0  0
    4.2500   -0.7410   55.7520 C   0  0  0  0  0  0  0  0  0  0  0  0
    3.7740    9.7810   53.4930 C   0  0  0  0  0  0  0  0  0  0  0  0
    3.7640    8.2030   55.3250 C   0  0  0  0  0  0  0  0  0  0  0  0
    3.0440    1.7300   55.6780 C   0  0  0  0  0  0  0  0  0  0  0  0
    3.3950   -0.4320   54.6880 C   0  0  0  0  0  0  0  0  0  0  0  0
    3.4480    8.7600   52.6130 C   0  0  0  0  0  0  0  0  0  0  0  0
    3.4610    7.1920   54.4340 C   0  0  0  0  0  0  0  0  0  0  0  0
    4.5100    0.1620   56.7750 C   0  0  0  0  0  0  0  0  0  0  0  0
    3.9660    9.5110   54.8630 C   0  0  0  0  0  0  0  0  0  0  0  0
    2.8680    0.8530   54.6040 C   0  0  0  0  0  0  0  0  0  0  0  0
    3.3420    7.4530   53.0760 C   0  0  0  0  0  0  0  0  0  0  0  0
    2.8480    1.7040   52.2200 C   0  0  0  0  0  0  0  0  0  0  0  0
    3.2230    6.1650   50.8460 C   0  0  0  0  0  0  0  0  0  0  0  0
    5.1110   11.6910   55.2340 C   0  0  0  0  0  0  0  0  0  0  0  0
    4.8610   10.1540   57.1130 C   0  0  0  0  0  0  0  0  0  0  0  0
    5.2750   12.8300   56.2450 C   0  0  0  0  0  0  0  0  0  0  0  0
    5.0280   11.3430   58.0600 C   0  0  0  0  0  0  0  0  0  0  0  0
    0.8600    4.7510   51.2050 C   0  0  0  0  0  0  0  0  0  0  0  0
    2.0870    2.5210   51.1330 C   0  0  0  0  0  0  0  0  0  0  0  0
    2.9800    4.7540   50.3470 C   0  0  0  0  0  0  0  0  0  0  0  0
    5.4760   -0.2280   57.8850 C   0  0  0  0  0  0  0  0  0  0  0  0
    4.3560   10.5450   55.7770 N   0  0  0  0  0  0  0  0  0  0  0  0
    2.2100    1.3120   53.4080 N   0  0  0  0  0  0  0  0  0  0  0  0
    3.1930    6.3150   52.2330 N   0  0  0  0  0  0  0  0  0  0  0  0
    2.1360    4.0310   51.2940 N   0  0  0  0  0  0  0  0  0  0  0  0
    4.0110    1.3910   52.0620 O   0  0  0  0  0  0  0  0  0  0  0  0
    3.3760    7.0850   50.0740 O   0  0  0  0  0  0  0  0  0  0  0  0
    5.8030   12.3850   57.4860 O   0  0  0  0  0  0  0  0  0  0  0  0
    4.9880   -1.2180   58.6490 F   0  0  0  0  0  0  0  0  0  0  0  0
    6.6480   -0.6700   57.3990 F   0  0  0  0  0  0  0  0  0  0  0  0
    5.7680    0.7840   58.7210 F   0  0  0  0  0  0  0  0  0  0  0  0
  1  5  2  0
  1  9  1  0
  2  6  1  0
  2  9  2  0
  3  7  2  0
  3 10  1  0
  4  8  1  0
  4 10  2  0
  5 11  1  0
  6 11  2  0
  7 12  1  0
  8 12  2  0
  9 22  1  0
 10 23  1  0
 11 24  1  0
 12 25  1  0
 13 20  1  0
 13 24  1  0
 13 27  2  0
 14 21  1  0
 14 25  1  0
 14 28  2  0
 15 17  1  0
 15 23  1  0
 16 18  1  0
 16 23  1  0
 17 29  1  0
 18 29  1  0
 19 26  1  0
 20 26  1  0
 21 26  1  0
 22 30  1  0
 22 31  1  0
 22 32  1  0
M  END
>  <washed_aromatic_smiles>  (360) 
CN(CC(=O)Nc1ccc(cc1)C(F)(F)F)CC(=O)Nc2ccc(cc2)N3CCOCC3

>  <name>  (360) 
neg138822

$$$$
neg199934
     RDKit          3D

 31 33  0  0  0  0  0  0  0  0999 V2000
    6.1410    8.8640   58.8120 C   0  0  0  0  0  0  0  0  0  0  0  0
    5.7800    7.7060   58.1380 C   0  0  0  0  0  0  0  0  0  0  0  0
    5.4050   10.0330   58.6480 C   0  0  0  0  0  0  0  0  0  0  0  0
    4.6790    7.7160   57.2970 C   0  0  0  0  0  0  0  0  0  0  0  0
    4.3140   10.0500   57.7940 C   0  0  0  0  0  0  0  0  0  0  0  0
    1.3620    8.1270   54.3420 C   0  0  0  0  0  0  0  0  0  0  0  0
    3.7320    7.6740   54.3820 C   0  0  0  0  0  0  0  0  0  0  0  0
    1.0400   -0.1040   52.1010 C   0  0  0  0  0  0  0  0  0  0  0  0
    3.2020    0.9530   52.4490 C   0  0  0  0  0  0  0  0  0  0  0  0
    1.2100    7.2720   53.2570 C   0  0  0  0  0  0  0  0  0  0  0  0
    3.5710    6.7600   53.3580 C   0  0  0  0  0  0  0  0  0  0  0  0
    1.1320   -0.6630   53.3650 C   0  0  0  0  0  0  0  0  0  0  0  0
    3.1950    0.5270   53.7610 C   0  0  0  0  0  0  0  0  0  0  0  0
    3.9340    8.8900   57.1080 C   0  0  0  0  0  0  0  0  0  0  0  0
    2.6140    8.2700   54.9770 C   0  0  0  0  0  0  0  0  0  0  0  0
    2.0860    0.6810   51.6370 C   0  0  0  0  0  0  0  0  0  0  0  0
    2.3150    6.5450   52.8190 C   0  0  0  0  0  0  0  0  0  0  0  0
    2.2100   -0.3390   54.1610 C   0  0  0  0  0  0  0  0  0  0  0  0
    2.7290    8.9060   56.2910 C   0  0  0  0  0  0  0  0  0  0  0  0
    2.2350    2.5650   50.1450 C   0  0  0  0  0  0  0  0  0  0  0  0
    2.6620    5.5200   49.4840 C   0  0  0  0  0  0  0  0  0  0  0  0
    3.8690    4.0270   47.9880 C   0  0  0  0  0  0  0  0  0  0  0  0
    1.7820    3.2830   48.8970 C   0  0  0  0  0  0  0  0  0  0  0  0
    1.6300    5.6700   50.6260 C   0  0  0  0  0  0  0  0  0  0  0  0
    1.9050    1.2640   50.3650 N   0  0  0  0  0  0  0  0  0  0  0  0
    2.6370    4.4380   48.6520 N   0  0  0  0  0  0  0  0  0  0  0  0
    1.7380    9.3690   56.8160 O   0  0  0  0  0  0  0  0  0  0  0  0
    2.8750    3.1470   50.9870 O   0  0  0  0  0  0  0  0  0  0  0  0
    3.5510    6.3650   49.3620 O   0  0  0  0  0  0  0  0  0  0  0  0
    2.2210    5.5400   51.9160 O   0  0  0  0  0  0  0  0  0  0  0  0
    2.3460   -0.8890   55.3300 F   0  0  0  0  0  0  0  0  0  0  0  0
  1  2  2  0
  1  3  1  0
  2  4  1  0
  3  5  2  0
  4 14  2  0
  5 14  1  0
  6 10  2  0
  6 15  1  0
  7 11  1  0
  7 15  2  0
  8 12  2  0
  8 16  1  0
  9 13  1  0
  9 16  2  0
 10 17  1  0
 11 17  2  0
 12 18  1  0
 13 18  2  0
 14 19  1  0
 15 19  1  0
 16 25  1  0
 17 30  1  0
 18 31  1  0
 19 27  2  0
 20 23  1  0
 20 25  1  0
 20 28  2  0
 21 24  1  0
 21 26  1  0
 21 29  2  0
 22 26  1  0
 23 26  1  0
 24 30  1  0
M  END
>  <washed_aromatic_smiles>  (361) 
CN(CC(=O)Nc1ccc(cc1)F)C(=O)COc2ccc(cc2)C(=O)c3ccccc3

>  <name>  (361) 
neg199934

$$$$
neg136993
     RDKit          3D

 25 27  0  0  0  0  0  0  0  0999 V2000
    2.8140    3.5820   51.9990 C   0  0  0  0  0  0  0  0  0  0  0  0
    1.4600    3.6390   50.0080 C   0  0  0  0  0  0  0  0  0  0  0  0
    2.6220    4.9360   52.1780 C   0  0  0  0  0  0  0  0  0  0  0  0
    1.1550    4.9750   50.2620 C   0  0  0  0  0  0  0  0  0  0  0  0
    2.1700    2.9130   50.9640 C   0  0  0  0  0  0  0  0  0  0  0  0
    1.6700    5.5880   51.4060 C   0  0  0  0  0  0  0  0  0  0  0  0
    3.8690    9.8180   54.0920 C   0  0  0  0  0  0  0  0  0  0  0  0
    2.1000    7.8530   52.1410 C   0  0  0  0  0  0  0  0  0  0  0  0
    4.9730    9.0480   57.6050 C   0  0  0  0  0  0  0  0  0  0  0  0
    4.7690   10.5580   57.7320 C   0  0  0  0  0  0  0  0  0  0  0  0
    5.1970    8.7780   56.1130 C   0  0  0  0  0  0  0  0  0  0  0  0
    4.0730   10.9530   56.4350 C   0  0  0  0  0  0  0  0  0  0  0  0
    1.5100    1.0070   52.2230 C   0  0  0  0  0  0  0  0  0  0  0  0
    3.4510    0.9080   50.8350 C   0  0  0  0  0  0  0  0  0  0  0  0
    1.5940   -0.5000   52.3500 C   0  0  0  0  0  0  0  0  0  0  0  0
    3.4720   -0.6020   51.0530 C   0  0  0  0  0  0  0  0  0  0  0  0
    4.7110   10.0390   55.3740 C   0  0  0  0  0  0  0  0  0  0  0  0
    2.1680    8.4510   55.2390 C   0  0  0  0  0  0  0  0  0  0  0  0
    1.7730    9.0760   52.9540 C   0  0  0  0  0  0  0  0  0  0  0  0
    2.1290    1.5080   50.9760 N   0  0  0  0  0  0  0  0  0  0  0  0
    1.2110    6.8460   51.8880 N   0  0  0  0  0  0  0  0  0  0  0  0
    2.6520    9.2180   54.1320 N   0  0  0  0  0  0  0  0  0  0  0  0
    4.3070   10.3150   53.0580 O   0  0  0  0  0  0  0  0  0  0  0  0
    3.1710    7.7740   51.6200 O   0  0  0  0  0  0  0  0  0  0  0  0
    2.9330   -0.9510   52.3160 O   0  0  0  0  0  0  0  0  0  0  0  0
  1  3  2  0
  1  5  1  0
  2  4  1  0
  2  5  2  0
  3  6  1  0
  4  6  2  0
  5 20  1  0
  6 21  1  0
  7 17  1  0
  7 22  1  0
  7 23  2  0
  8 19  1  0
  8 21  1  0
  8 24  2  0
  9 10  1  0
  9 11  1  0
 10 12  1  0
 11 17  1  0
 12 17  1  0
 13 15  1  0
 13 20  1  0
 14 16  1  0
 14 20  1  0
 15 25  1  0
 16 25  1  0
 18 22  1  0
 19 22  1  0
M  END
>  <washed_aromatic_smiles>  (362) 
CN(CC(=O)Nc1ccc(cc1)N2CCOCC2)C(=O)C3CCCC3

>  <name>  (362) 
neg136993

$$$$
neg17976
     RDKit          3D

 27 29  0  0  0  0  0  0  0  0999 V2000
   -0.3170   -0.3580   48.4690 C   0  0  0  0  0  0  0  0  0  0  0  0
    0.6170   -0.4100   49.4910 C   0  0  0  0  0  0  0  0  0  0  0  0
   -0.2920    0.6870   47.5580 C   0  0  0  0  0  0  0  0  0  0  0  0
    1.5210    0.6140   49.6480 C   0  0  0  0  0  0  0  0  0  0  0  0
    0.6320    1.7070   47.6930 C   0  0  0  0  0  0  0  0  0  0  0  0
    2.7310    9.2880   55.8190 C   0  0  0  0  0  0  0  0  0  0  0  0
    4.6740    8.2710   54.7810 C   0  0  0  0  0  0  0  0  0  0  0  0
    1.9070    8.6710   54.8810 C   0  0  0  0  0  0  0  0  0  0  0  0
    3.8460    7.6190   53.8860 C   0  0  0  0  0  0  0  0  0  0  0  0
    1.5330    1.6700   48.7480 C   0  0  0  0  0  0  0  0  0  0  0  0
    4.1170    9.0770   55.7690 C   0  0  0  0  0  0  0  0  0  0  0  0
    2.4710    7.8370   53.9180 C   0  0  0  0  0  0  0  0  0  0  0  0
    2.5230    3.3680   50.2780 C   0  0  0  0  0  0  0  0  0  0  0  0
    2.0500    6.5560   51.8560 C   0  0  0  0  0  0  0  0  0  0  0  0
    4.9790    8.6140   57.8870 C   0  0  0  0  0  0  0  0  0  0  0  0
    4.8570   10.9670   57.1500 C   0  0  0  0  0  0  0  0  0  0  0  0
    5.8740    9.0420   59.0570 C   0  0  0  0  0  0  0  0  0  0  0  0
    4.8410   11.1890   58.6690 C   0  0  0  0  0  0  0  0  0  0  0  0
    1.0500    4.9600   49.2530 C   0  0  0  0  0  0  0  0  0  0  0  0
    2.5850    2.7110   48.9120 C   0  0  0  0  0  0  0  0  0  0  0  0
    1.5500    5.1560   51.6510 C   0  0  0  0  0  0  0  0  0  0  0  0
    4.9880    9.5510   56.7580 N   0  0  0  0  0  0  0  0  0  0  0  0
    1.6270    7.1210   53.0350 N   0  0  0  0  0  0  0  0  0  0  0  0
    1.8130    4.5010   50.3770 N   0  0  0  0  0  0  0  0  0  0  0  0
    2.9880    2.8010   51.2650 O   0  0  0  0  0  0  0  0  0  0  0  0
    2.8820    7.0830   51.1480 O   0  0  0  0  0  0  0  0  0  0  0  0
    5.8540   10.4440   59.3290 O   0  0  0  0  0  0  0  0  0  0  0  0
  1  2  2  0
  1  3  1  0
  2  4  1  0
  3  5  2  0
  4 10  2  0
  5 10  1  0
  6  8  2  0
  6 11  1  0
  7  9  1  0
  7 11  2  0
  8 12  1  0
  9 12  2  0
 10 20  1  0
 11 22  1  0
 12 23  1  0
 13 20  1  0
 13 24  1  0
 13 25  2  0
 14 21  1  0
 14 23  1  0
 14 26  2  0
 15 17  1  0
 15 22  1  0
 16 18  1  0
 16 22  1  0
 17 27  1  0
 18 27  1  0
 19 24  1  0
 21 24  1  0
M  END
>  <washed_aromatic_smiles>  (363) 
CN(CC(=O)Nc1ccc(cc1)N2CCOCC2)C(=O)Cc3ccccc3

>  <name>  (363) 
neg17976

$$$$
neg138401
     RDKit          3D

 26 28  0  0  0  0  0  0  0  0999 V2000
    4.7600    7.1940   57.6050 C   0  0  0  0  0  0  0  0  0  0  0  0
    5.2800    7.4790   58.8560 C   0  0  0  0  0  0  0  0  0  0  0  0
    3.0050    5.7430   49.2330 C   0  0  0  0  0  0  0  0  0  0  0  0
    4.3550    8.2300   56.7770 C   0  0  0  0  0  0  0  0  0  0  0  0
    3.1720    6.6080   50.3110 C   0  0  0  0  0  0  0  0  0  0  0  0
    5.4090    8.8010   59.2590 C   0  0  0  0  0  0  0  0  0  0  0  0
    2.7180    4.7900   51.8310 C   0  0  0  0  0  0  0  0  0  0  0  0
    2.5890    4.4420   49.4630 C   0  0  0  0  0  0  0  0  0  0  0  0
    2.4470    3.9730   50.7460 C   0  0  0  0  0  0  0  0  0  0  0  0
    3.0260    6.1350   51.6190 C   0  0  0  0  0  0  0  0  0  0  0  0
    4.5560    9.5640   57.1580 C   0  0  0  0  0  0  0  0  0  0  0  0
    5.0940    9.8620   58.4130 C   0  0  0  0  0  0  0  0  0  0  0  0
    2.8840    8.3170   52.8580 C   0  0  0  0  0  0  0  0  0  0  0  0
    5.0230   11.3530   55.4960 C   0  0  0  0  0  0  0  0  0  0  0  0
    2.2360    3.3890   48.4610 C   0  0  0  0  0  0  0  0  0  0  0  0
    2.0110    2.5370   50.7480 C   0  0  0  0  0  0  0  0  0  0  0  0
    2.1000    2.0900   49.2820 C   0  0  0  0  0  0  0  0  0  0  0  0
    5.4610   10.2740   52.2900 C   0  0  0  0  0  0  0  0  0  0  0  0
    3.7260    9.2910   53.6870 C   0  0  0  0  0  0  0  0  0  0  0  0
    4.6930   11.6830   54.0550 C   0  0  0  0  0  0  0  0  0  0  0  0
    3.3150    7.0040   52.7230 N   0  0  0  0  0  0  0  0  0  0  0  0
    4.1590   10.5730   56.2390 N   0  0  0  0  0  0  0  0  0  0  0  0
    4.3070   10.5710   53.1100 N   0  0  0  0  0  0  0  0  0  0  0  0
    1.7670    8.6070   52.4890 O   0  0  0  0  0  0  0  0  0  0  0  0
    6.0350   11.7940   55.9850 O   0  0  0  0  0  0  0  0  0  0  0  0
    5.3690   11.6430   59.0020 Br  0  0  0  0  0  0  0  0  0  0  0  0
  1  2  2  0
  1  4  1  0
  2  6  1  0
  3  5  2  0
  3  8  1  0
  4 11  2  0
  5 10  1  0
  6 12  2  0
  7  9  1  0
  7 10  2  0
  8  9  2  0
  8 15  1  0
  9 16  1  0
 10 21  1  0
 11 12  1  0
 11 22  1  0
 12 26  1  0
 13 19  1  0
 13 21  1  0
 13 24  2  0
 14 20  1  0
 14 22  1  0
 14 25  2  0
 15 17  1  0
 16 17  1  0
 18 23  1  0
 19 23  1  0
 20 23  1  0
M  END
>  <washed_aromatic_smiles>  (364) 
CN(CC(=O)Nc1ccc2c(c1)CCC2)CC(=O)Nc3ccccc3Br

>  <name>  (364) 
neg138401

$$$$
neg81546
     RDKit          3D

 28 29  0  0  0  0  0  0  0  0999 V2000
    1.2230   -0.7240   53.5710 C   0  0  0  0  0  0  0  0  0  0  0  0
    4.1200    8.2460   55.4450 C   0  0  0  0  0  0  0  0  0  0  0  0
    2.0960   -0.5310   54.6250 C   0  0  0  0  0  0  0  0  0  0  0  0
    1.3580   -0.0230   52.3940 C   0  0  0  0  0  0  0  0  0  0  0  0
    3.4990    7.3060   54.6290 C   0  0  0  0  0  0  0  0  0  0  0  0
    4.4240    9.5080   54.9500 C   0  0  0  0  0  0  0  0  0  0  0  0
    3.3030    1.0600   53.3370 C   0  0  0  0  0  0  0  0  0  0  0  0
    3.4270    8.8930   52.8190 C   0  0  0  0  0  0  0  0  0  0  0  0
    3.1270    0.3950   54.5630 C   0  0  0  0  0  0  0  0  0  0  0  0
    2.3990    0.8920   52.2840 C   0  0  0  0  0  0  0  0  0  0  0  0
    3.1530    7.6180   53.3170 C   0  0  0  0  0  0  0  0  0  0  0  0
    4.0870    9.8190   53.6300 C   0  0  0  0  0  0  0  0  0  0  0  0
    1.6790    2.0110   50.1340 C   0  0  0  0  0  0  0  0  0  0  0  0
    2.6120    6.3590   51.1860 C   0  0  0  0  0  0  0  0  0  0  0  0
    3.5090    4.9550   48.7100 C   0  0  0  0  0  0  0  0  0  0  0  0
    5.1610   12.0880   53.7530 C   0  0  0  0  0  0  0  0  0  0  0  0
    2.0800    3.1080   49.1760 C   0  0  0  0  0  0  0  0  0  0  0  0
    1.9510    5.1140   50.5950 C   0  0  0  0  0  0  0  0  0  0  0  0
    3.8880    0.5920   55.9050 C   0  0  0  0  0  0  0  0  0  0  0  0
    2.5780    1.7230   51.1430 N   0  0  0  0  0  0  0  0  0  0  0  0
    2.5410    6.5630   52.5530 N   0  0  0  0  0  0  0  0  0  0  0  0
    2.8400    4.2170   49.7850 N   0  0  0  0  0  0  0  0  0  0  0  0
    0.6240    1.4230   50.0040 O   0  0  0  0  0  0  0  0  0  0  0  0
    3.1760    7.1640   50.4820 O   0  0  0  0  0  0  0  0  0  0  0  0
    4.4060   11.0500   53.0900 O   0  0  0  0  0  0  0  0  0  0  0  0
    4.1990   -0.5850   56.4700 F   0  0  0  0  0  0  0  0  0  0  0  0
    5.0170    1.2330   55.9490 F   0  0  0  0  0  0  0  0  0  0  0  0
    3.1390    1.2820   56.7620 F   0  0  0  0  0  0  0  0  0  0  0  0
  1  3  2  0
  1  4  1  0
  2  5  2  0
  2  6  1  0
  3  9  1  0
  4 10  2  0
  5 11  1  0
  6 12  2  0
  7  9  2  0
  7 10  1  0
  8 11  2  0
  8 12  1  0
  9 19  1  0
 10 20  1  0
 11 21  1  0
 12 25  1  0
 13 17  1  0
 13 20  1  0
 13 23  2  0
 14 18  1  0
 14 21  1  0
 14 24  2  0
 15 22  1  0
 16 25  1  0
 17 22  1  0
 18 22  1  0
 19 26  1  0
 19 27  1  0
 19 28  1  0
M  END
>  <washed_aromatic_smiles>  (365) 
CN(CC(=O)Nc1cccc(c1)C(F)(F)F)CC(=O)Nc2cccc(c2)OC

>  <name>  (365) 
neg81546

$$$$
neg14908
     RDKit          3D

 29 31  0  0  0  0  0  0  0  0999 V2000
    5.6620    1.0700   57.9280 C   0  0  0  0  0  0  0  0  0  0  0  0
    5.7170   -0.2120   57.4000 C   0  0  0  0  0  0  0  0  0  0  0  0
    4.7240    1.9740   57.4480 C   0  0  0  0  0  0  0  0  0  0  0  0
    3.1850    7.7630   54.4850 C   0  0  0  0  0  0  0  0  0  0  0  0
    4.8410   -0.5810   56.3880 C   0  0  0  0  0  0  0  0  0  0  0  0
    3.8200    1.5960   56.4610 C   0  0  0  0  0  0  0  0  0  0  0  0
    2.8510    1.7410   53.1970 C   0  0  0  0  0  0  0  0  0  0  0  0
    2.7020   -0.5040   52.3940 C   0  0  0  0  0  0  0  0  0  0  0  0
    2.6300    2.2200   51.9200 C   0  0  0  0  0  0  0  0  0  0  0  0
    2.4440   -0.0260   51.1150 C   0  0  0  0  0  0  0  0  0  0  0  0
    3.4340    6.9620   53.3750 C   0  0  0  0  0  0  0  0  0  0  0  0
    1.9540    8.3950   54.6180 C   0  0  0  0  0  0  0  0  0  0  0  0
    1.2160    7.4150   52.5100 C   0  0  0  0  0  0  0  0  0  0  0  0
    3.8880    0.3210   55.8860 C   0  0  0  0  0  0  0  0  0  0  0  0
    2.8810    0.3800   53.4660 C   0  0  0  0  0  0  0  0  0  0  0  0
    2.3600    1.3550   50.8530 C   0  0  0  0  0  0  0  0  0  0  0  0
    2.4620    6.7960   52.3860 C   0  0  0  0  0  0  0  0  0  0  0  0
    0.9960    8.2010   53.6300 C   0  0  0  0  0  0  0  0  0  0  0  0
    2.9630   -0.1100   54.8360 C   0  0  0  0  0  0  0  0  0  0  0  0
    1.8820    1.8130   49.5320 C   0  0  0  0  0  0  0  0  0  0  0  0
    2.0280    5.2280   50.4770 C   0  0  0  0  0  0  0  0  0  0  0  0
    1.3440    3.4420   47.7460 C   0  0  0  0  0  0  0  0  0  0  0  0
    2.7460    4.2730   49.5420 C   0  0  0  0  0  0  0  0  0  0  0  0
    2.8400    5.9930   51.2790 N   0  0  0  0  0  0  0  0  0  0  0  0
    1.9560    3.1300   49.0350 N   0  0  0  0  0  0  0  0  0  0  0  0
    2.1570   -0.9530   55.1300 O   0  0  0  0  0  0  0  0  0  0  0  0
    1.3320    0.9970   48.7900 O   0  0  0  0  0  0  0  0  0  0  0  0
    0.8240    5.2650   50.5860 O   0  0  0  0  0  0  0  0  0  0  0  0
   -0.1900    8.8000   53.7630 F   0  0  0  0  0  0  0  0  0  0  0  0
  1  2  2  0
  1  3  1  0
  2  5  1  0
  3  6  2  0
  4 11  2  0
  4 12  1  0
  5 14  2  0
  6 14  1  0
  7  9  2  0
  7 15  1  0
  8 10  1  0
  8 15  2  0
  9 16  1  0
 10 16  2  0
 11 17  1  0
 12 18  2  0
 13 17  2  0
 13 18  1  0
 14 19  1  0
 15 19  1  0
 16 20  1  0
 17 24  1  0
 18 29  1  0
 19 26  2  0
 20 25  1  0
 20 27  2  0
 21 23  1  0
 21 24  1  0
 21 28  2  0
 22 25  1  0
 23 25  1  0
M  END
>  <washed_aromatic_smiles>  (366) 
CN(CC(=O)Nc1cccc(c1)F)C(=O)c2ccc(cc2)C(=O)c3ccccc3

>  <name>  (366) 
neg14908

$$$$
neg18254
     RDKit          3D

 32 34  0  0  0  0  0  0  0  0999 V2000
    0.2800    0.6140   47.8660 C   0  0  0  0  0  0  0  0  0  0  0  0
    1.4410    8.7730   55.3180 C   0  0  0  0  0  0  0  0  0  0  0  0
    1.0820    1.7380   48.0320 C   0  0  0  0  0  0  0  0  0  0  0  0
    1.1500    8.1220   54.1390 C   0  0  0  0  0  0  0  0  0  0  0  0
    0.4130   -0.4660   48.7370 C   0  0  0  0  0  0  0  0  0  0  0  0
    2.6610    9.4160   55.4800 C   0  0  0  0  0  0  0  0  0  0  0  0
    2.0830    0.7430   50.0170 C   0  0  0  0  0  0  0  0  0  0  0  0
    3.2890    8.8320   53.2430 C   0  0  0  0  0  0  0  0  0  0  0  0
    1.9920    1.7690   49.0950 C   0  0  0  0  0  0  0  0  0  0  0  0
    2.1140    8.1080   53.1480 C   0  0  0  0  0  0  0  0  0  0  0  0
    1.3360   -0.3840   49.7760 C   0  0  0  0  0  0  0  0  0  0  0  0
    3.5960    9.4590   54.4340 C   0  0  0  0  0  0  0  0  0  0  0  0
    3.2890    3.7980   48.4970 C   0  0  0  0  0  0  0  0  0  0  0  0
    2.7040    6.0230   52.2180 C   0  0  0  0  0  0  0  0  0  0  0  0
    5.1020   11.3090   58.9980 C   0  0  0  0  0  0  0  0  0  0  0  0
    5.4920    9.8680   58.6440 C   0  0  0  0  0  0  0  0  0  0  0  0
    5.3770   12.3240   57.9010 C   0  0  0  0  0  0  0  0  0  0  0  0
    5.3980    9.4990   57.1530 C   0  0  0  0  0  0  0  0  0  0  0  0
    4.7560   11.8620   56.6010 C   0  0  0  0  0  0  0  0  0  0  0  0
    0.9510    5.0350   49.2650 C   0  0  0  0  0  0  0  0  0  0  0  0
    3.3840    5.1540   49.1400 C   0  0  0  0  0  0  0  0  0  0  0  0
    2.2280    4.9540   51.3050 C   0  0  0  0  0  0  0  0  0  0  0  0
    5.3590   10.6080   56.1510 N   0  0  0  0  0  0  0  0  0  0  0  0
    2.8490    2.8230   49.3410 N   0  0  0  0  0  0  0  0  0  0  0  0
    1.9910    7.1820   52.1410 N   0  0  0  0  0  0  0  0  0  0  0  0
    2.1840    5.4420   49.9330 N   0  0  0  0  0  0  0  0  0  0  0  0
    3.4950    3.5900   47.3300 O   0  0  0  0  0  0  0  0  0  0  0  0
    3.6170    5.8650   53.0090 O   0  0  0  0  0  0  0  0  0  0  0  0
    6.1760    9.2040   54.2210 O   0  0  0  0  0  0  0  0  0  0  0  0
    5.2300   11.3840   53.7480 O   0  0  0  0  0  0  0  0  0  0  0  0
    1.6340   -1.4200   50.5360 F   0  0  0  0  0  0  0  0  0  0  0  0
    5.2140   10.2040   54.5500 S   0  0  0  0  0  0  0  0  0  0  0  0
  1  3  2  0
  1  5  1  0
  2  4  2  0
  2  6  1  0
  3  9  1  0
  4 10  1  0
  5 11  2  0
  6 12  2  0
  7  9  2  0
  7 11  1  0
  8 10  2  0
  8 12  1  0
  9 24  1  0
 10 25  1  0
 11 31  1  0
 12 32  1  0
 13 21  1  0
 13 24  1  0
 13 27  2  0
 14 22  1  0
 14 25  1  0
 14 28  2  0
 15 16  1  0
 15 17  1  0
 16 18  1  0
 17 19  1  0
 18 23  1  0
 19 23  1  0
 20 26  1  0
 21 26  1  0
 22 26  1  0
 23 32  1  0
 29 32  2  0
 30 32  2  0
M  END
>  <washed_aromatic_smiles>  (367) 
CN(CC(=O)Nc1cccc(c1)F)CC(=O)Nc2cccc(c2)S(=O)(=O)N3CCCCC3

>  <name>  (367) 
neg18254

$$$$
neg200715
     RDKit          3D

 26 27  0  0  0  0  0  0  0  0999 V2000
    4.7080    8.2670   54.6540 C   0  0  0  0  0  0  0  0  0  0  0  0
    4.0820    9.1320   55.5410 C   0  0  0  0  0  0  0  0  0  0  0  0
    2.1050   -0.4130   54.3180 C   0  0  0  0  0  0  0  0  0  0  0  0
    3.9410    7.4410   53.8380 C   0  0  0  0  0  0  0  0  0  0  0  0
    3.1500    0.4460   54.0440 C   0  0  0  0  0  0  0  0  0  0  0  0
    1.0780   -0.5530   53.3970 C   0  0  0  0  0  0  0  0  0  0  0  0
    2.6950    9.1690   55.6110 C   0  0  0  0  0  0  0  0  0  0  0  0
    2.5560    7.5170   53.8450 C   0  0  0  0  0  0  0  0  0  0  0  0
    2.1190    1.0630   51.9240 C   0  0  0  0  0  0  0  0  0  0  0  0
    3.1890    1.0810   52.8100 C   0  0  0  0  0  0  0  0  0  0  0  0
    1.0480    0.2270   52.2430 C   0  0  0  0  0  0  0  0  0  0  0  0
    1.9150    8.3660   54.7660 C   0  0  0  0  0  0  0  0  0  0  0  0
    2.1960    6.4840   51.6030 C   0  0  0  0  0  0  0  0  0  0  0  0
    1.4890    2.2150   49.7220 C   0  0  0  0  0  0  0  0  0  0  0  0
    3.4480    5.2950   49.0840 C   0  0  0  0  0  0  0  0  0  0  0  0
   -0.2740    8.6410   56.6450 C   0  0  0  0  0  0  0  0  0  0  0  0
    1.5860    5.3480   50.7700 C   0  0  0  0  0  0  0  0  0  0  0  0
    1.7840    3.5470   49.0570 C   0  0  0  0  0  0  0  0  0  0  0  0
    1.8230    6.6760   52.9230 N   0  0  0  0  0  0  0  0  0  0  0  0
    2.2150    1.9970   50.8600 N   0  0  0  0  0  0  0  0  0  0  0  0
    2.5260    4.5130   49.9210 N   0  0  0  0  0  0  0  0  0  0  0  0
    2.9730    7.2750   51.1180 O   0  0  0  0  0  0  0  0  0  0  0  0
    0.7090    1.4010   49.2690 O   0  0  0  0  0  0  0  0  0  0  0  0
    4.2960    1.6970   52.4300 F   0  0  0  0  0  0  0  0  0  0  0  0
   -0.0620    0.1880   51.4900 F   0  0  0  0  0  0  0  0  0  0  0  0
    0.1770    8.3920   54.8690 S   0  0  0  0  0  0  0  0  0  0  0  0
  1  2  2  0
  1  4  1  0
  2  7  1  0
  3  5  2  0
  3  6  1  0
  4  8  2  0
  5 10  1  0
  6 11  2  0
  7 12  2  0
  8 12  1  0
  8 19  1  0
  9 10  2  0
  9 11  1  0
  9 20  1  0
 10 24  1  0
 11 25  1  0
 12 26  1  0
 13 17  1  0
 13 19  1  0
 13 22  2  0
 14 18  1  0
 14 20  1  0
 14 23  2  0
 15 21  1  0
 16 26  1  0
 17 21  1  0
 18 21  1  0
M  END
>  <washed_aromatic_smiles>  (368) 
CN(CC(=O)Nc1ccccc1SC)CC(=O)Nc2c(cccc2F)F

>  <name>  (368) 
neg200715

$$$$
neg240970
     RDKit          3D

 26 27  0  0  0  0  0  0  0  0999 V2000
    1.3230   -0.1430   52.9300 C   0  0  0  0  0  0  0  0  0  0  0  0
    2.6320    0.3240   52.9740 C   0  0  0  0  0  0  0  0  0  0  0  0
    0.4630    0.2850   51.9200 C   0  0  0  0  0  0  0  0  0  0  0  0
    3.0790    1.2300   52.0210 C   0  0  0  0  0  0  0  0  0  0  0  0
    0.9000    1.1770   50.9530 C   0  0  0  0  0  0  0  0  0  0  0  0
    4.3530    9.7060   54.5210 C   0  0  0  0  0  0  0  0  0  0  0  0
    2.3210    8.9450   55.5550 C   0  0  0  0  0  0  0  0  0  0  0  0
    4.8230   10.1280   55.7550 C   0  0  0  0  0  0  0  0  0  0  0  0
    2.8080    9.3210   56.8000 C   0  0  0  0  0  0  0  0  0  0  0  0
    2.2050    1.6690   51.0230 C   0  0  0  0  0  0  0  0  0  0  0  0
    3.0890    9.1240   54.4080 C   0  0  0  0  0  0  0  0  0  0  0  0
    4.0620    9.9230   56.9010 C   0  0  0  0  0  0  0  0  0  0  0  0
    2.1450    3.2280   49.0250 C   0  0  0  0  0  0  0  0  0  0  0  0
    2.1180    5.6920   50.7680 C   0  0  0  0  0  0  0  0  0  0  0  0
    0.4830    6.9540   52.9700 C   0  0  0  0  0  0  0  0  0  0  0  0
    2.7040    4.5910   48.6560 C   0  0  0  0  0  0  0  0  0  0  0  0
    2.6430    6.1130   52.1260 C   0  0  0  0  0  0  0  0  0  0  0  0
    2.6860    2.6890   50.1700 N   0  0  0  0  0  0  0  0  0  0  0  0
    1.9040    7.1790   52.8330 N   0  0  0  0  0  0  0  0  0  0  0  0
    1.2660    2.6730   48.3920 O   0  0  0  0  0  0  0  0  0  0  0  0
    0.9380    5.4050   50.5630 O   0  0  0  0  0  0  0  0  0  0  0  0
    1.2920    9.5990   52.6080 O   0  0  0  0  0  0  0  0  0  0  0  0
    3.4810    8.8780   51.8700 O   0  0  0  0  0  0  0  0  0  0  0  0
    3.0500    5.3890   49.8370 O   0  0  0  0  0  0  0  0  0  0  0  0
    2.4200    8.7530   52.7970 S   0  0  0  0  0  0  0  0  0  0  0  0
    4.6860   10.4420   58.4300 Cl  0  0  0  0  0  0  0  0  0  0  0  0
  1  2  2  0
  1  3  1  0
  2  4  1  0
  3  5  2  0
  4 10  2  0
  5 10  1  0
  6  8  2  0
  6 11  1  0
  7  9  1  0
  7 11  2  0
  8 12  1  0
  9 12  2  0
 10 18  1  0
 11 25  1  0
 12 26  1  0
 13 16  1  0
 13 18  1  0
 13 20  2  0
 14 17  1  0
 14 21  2  0
 14 24  1  0
 15 19  1  0
 16 24  1  0
 17 19  1  0
 19 25  1  0
 22 25  2  0
 23 25  2  0
M  END
>  <washed_aromatic_smiles>  (369) 
CN(CC(=O)OCC(=O)Nc1ccccc1)S(=O)(=O)c2ccc(cc2)Cl

>  <name>  (369) 
neg240970

$$$$
neg107039
     RDKit          3D

 36 38  0  0  0  0  0  0  0  0999 V2000
    0.9040    4.7090   51.5300 C   0  0  0  0  0  0  0  0  0  0  0  0
    1.7290    7.3910   53.1160 C   0  0  0  0  0  0  0  0  0  0  0  0
    1.0590    3.4330   51.0280 C   0  0  0  0  0  0  0  0  0  0  0  0
    2.3590    8.5580   53.5840 C   0  0  0  0  0  0  0  0  0  0  0  0
    2.6760    4.0980   49.4690 C   0  0  0  0  0  0  0  0  0  0  0  0
    3.5260    8.6850   51.5190 C   0  0  0  0  0  0  0  0  0  0  0  0
    1.8380    5.6090   51.2080 C   0  0  0  0  0  0  0  0  0  0  0  0
    2.1120    6.8420   51.8830 C   0  0  0  0  0  0  0  0  0  0  0  0
    2.6620    5.3560   50.1240 C   0  0  0  0  0  0  0  0  0  0  0  0
    3.0270    7.4660   51.0830 C   0  0  0  0  0  0  0  0  0  0  0  0
    1.8520    3.0820   49.9840 C   0  0  0  0  0  0  0  0  0  0  0  0
    3.3190    9.1960   52.7880 C   0  0  0  0  0  0  0  0  0  0  0  0
    3.3220    6.6040   49.9030 C   0  0  0  0  0  0  0  0  0  0  0  0
    2.7970    1.0190   54.3820 C   0  0  0  0  0  0  0  0  0  0  0  0
    5.1940   11.8220   58.9730 C   0  0  0  0  0  0  0  0  0  0  0  0
    3.7620    0.7700   50.9260 C   0  0  0  0  0  0  0  0  0  0  0  0
    4.9470    9.5050   55.6550 C   0  0  0  0  0  0  0  0  0  0  0  0
    2.2400   -0.3010   53.8800 C   0  0  0  0  0  0  0  0  0  0  0  0
    5.6930   12.2520   57.6320 C   0  0  0  0  0  0  0  0  0  0  0  0
    1.2720   -0.1400   52.6950 C   0  0  0  0  0  0  0  0  0  0  0  0
    4.6500   12.4860   56.5720 C   0  0  0  0  0  0  0  0  0  0  0  0
    1.8200   -0.6180   51.3300 C   0  0  0  0  0  0  0  0  0  0  0  0
    5.1720   11.9350   55.2640 C   0  0  0  0  0  0  0  0  0  0  0  0
    2.4090    0.4190   50.5080 N   0  0  0  0  0  0  0  0  0  0  0  0
    4.5570   10.6670   54.8490 N   0  0  0  0  0  0  0  0  0  0  0  0
    3.8040    6.8710   48.8230 O   0  0  0  0  0  0  0  0  0  0  0  0
    2.8940    1.9420   53.5490 O   0  0  0  0  0  0  0  0  0  0  0  0
    5.6260   12.4700   59.9480 O   0  0  0  0  0  0  0  0  0  0  0  0
    0.0680    1.1010   49.8710 O   0  0  0  0  0  0  0  0  0  0  0  0
    1.7030    1.2050   48.1720 O   0  0  0  0  0  0  0  0  0  0  0  0
    5.7850   10.1460   52.7570 O   0  0  0  0  0  0  0  0  0  0  0  0
    4.0120   11.7720   52.7380 O   0  0  0  0  0  0  0  0  0  0  0  0
    3.1150    1.0780   55.5890 O   0  0  0  0  0  0  0  0  0  0  0  0
    4.4840   10.7950   58.9740 O   0  0  0  0  0  0  0  0  0  0  0  0
    1.4280    1.3750   49.5340 S   0  0  0  0  0  0  0  0  0  0  0  0
    4.4920   10.5280   53.2240 S   0  0  0  0  0  0  0  0  0  0  0  0
  1  3  2  0
  1  7  1  0
  2  4  1  0
  2  8  2  0
  3 11  1  0
  4 12  2  0
  5  9  1  0
  5 11  2  0
  6 10  2  0
  6 12  1  0
  7  8  1  0
  7  9  2  0
  8 10  1  0
  9 13  1  0
 10 13  1  0
 11 35  1  0
 12 36  1  0
 13 26  2  0
 14 18  1  0
 14 27  1  0
 14 33  2  0
 15 19  1  0
 15 28  1  0
 15 34  2  0
 16 24  1  0
 17 25  1  0
 18 20  1  0
 19 21  1  0
 20 22  1  0
 21 23  1  0
 22 24  1  0
 23 25  1  0
 24 35  1  0
 25 36  1  0
 29 35  2  0
 30 35  2  0
 31 36  2  0
 32 36  2  0
M  CHG  2  27  -1  28  -1
M  END
>  <washed_aromatic_smiles>  (370) 
CN(CCCC(=O)O)S(=O)(=O)c1ccc-2c(c1)C(=O)c3c2ccc(c3)S(=O)(=O)N(C)CCCC(=O)O

>  <name>  (370) 
neg107039

$$$$
neg83477
     RDKit          3D

 28 30  0  0  0  0  0  0  0  0999 V2000
    4.2240    1.4830   57.1790 C   0  0  0  0  0  0  0  0  0  0  0  0
    4.7420    0.2030   57.0260 C   0  0  0  0  0  0  0  0  0  0  0  0
    3.2790    1.9600   56.2750 C   0  0  0  0  0  0  0  0  0  0  0  0
    0.7190    0.7060   51.5540 C   0  0  0  0  0  0  0  0  0  0  0  0
    2.9770    0.8540   50.7380 C   0  0  0  0  0  0  0  0  0  0  0  0
    0.9760    5.6450   51.0430 C   0  0  0  0  0  0  0  0  0  0  0  0
    3.1120    5.7200   52.1060 C   0  0  0  0  0  0  0  0  0  0  0  0
    0.5310    6.6690   51.8700 C   0  0  0  0  0  0  0  0  0  0  0  0
    2.6950    6.7780   52.8930 C   0  0  0  0  0  0  0  0  0  0  0  0
    4.3190   -0.5930   55.9680 C   0  0  0  0  0  0  0  0  0  0  0  0
    2.8410    1.1730   55.2240 C   0  0  0  0  0  0  0  0  0  0  0  0
    1.1730   -0.0420   52.6380 C   0  0  0  0  0  0  0  0  0  0  0  0
    3.4370    0.1670   51.8370 C   0  0  0  0  0  0  0  0  0  0  0  0
    1.6350    1.2010   50.6140 C   0  0  0  0  0  0  0  0  0  0  0  0
    2.2590    5.1350   51.1720 C   0  0  0  0  0  0  0  0  0  0  0  0
    1.4020    7.2710   52.7730 C   0  0  0  0  0  0  0  0  0  0  0  0
    3.3690   -0.1050   55.0630 C   0  0  0  0  0  0  0  0  0  0  0  0
    2.5360   -0.2630   52.8050 C   0  0  0  0  0  0  0  0  0  0  0  0
    1.2520    2.0540   49.5000 C   0  0  0  0  0  0  0  0  0  0  0  0
    1.7160    4.0400   48.0880 C   0  0  0  0  0  0  0  0  0  0  0  0
    2.7480    3.9720   50.3270 C   0  0  0  0  0  0  0  0  0  0  0  0
    0.9790    8.4760   53.5770 C   0  0  0  0  0  0  0  0  0  0  0  0
    1.7980    3.3390   49.3690 N   0  0  0  0  0  0  0  0  0  0  0  0
    0.4800    1.6490   48.6340 O   0  0  0  0  0  0  0  0  0  0  0  0
    2.9950   -0.8750   53.9610 O   0  0  0  0  0  0  0  0  0  0  0  0
    0.1940    9.3000   52.8680 F   0  0  0  0  0  0  0  0  0  0  0  0
    0.3060    8.1520   54.6800 F   0  0  0  0  0  0  0  0  0  0  0  0
    2.0350    9.1920   53.9870 F   0  0  0  0  0  0  0  0  0  0  0  0
  1  2  2  0
  1  3  1  0
  2 10  1  0
  3 11  2  0
  4 12  2  0
  4 14  1  0
  5 13  1  0
  5 14  2  0
  6  8  2  0
  6 15  1  0
  7  9  1  0
  7 15  2  0
  8 16  1  0
  9 16  2  0
 10 17  2  0
 11 17  1  0
 12 18  1  0
 13 18  2  0
 14 19  1  0
 15 21  1  0
 16 22  1  0
 17 25  1  0
 18 25  1  0
 19 23  1  0
 19 24  2  0
 20 23  1  0
 21 23  1  0
 22 26  1  0
 22 27  1  0
 22 28  1  0
M  END
>  <washed_aromatic_smiles>  (371) 
CN(Cc1ccc(cc1)C(F)(F)F)C(=O)c2ccc(cc2)Oc3ccccc3

>  <name>  (371) 
neg83477

$$$$
neg9143
     RDKit          3D

 27 29  0  0  0  0  0  0  0  0999 V2000
    0.0620    1.8610   46.8460 C   0  0  0  0  0  0  0  0  0  0  0  0
    5.2920   11.3730   55.6330 C   0  0  0  0  0  0  0  0  0  0  0  0
    5.3440   11.8710   54.3260 C   0  0  0  0  0  0  0  0  0  0  0  0
   -0.5290    0.7050   47.3280 C   0  0  0  0  0  0  0  0  0  0  0  0
    1.1740    2.3770   47.4830 C   0  0  0  0  0  0  0  0  0  0  0  0
    4.7700   10.1050   55.8790 C   0  0  0  0  0  0  0  0  0  0  0  0
    4.8530   11.1140   53.2640 C   0  0  0  0  0  0  0  0  0  0  0  0
    0.0080    0.0230   48.4040 C   0  0  0  0  0  0  0  0  0  0  0  0
    1.7170    1.6960   48.5590 C   0  0  0  0  0  0  0  0  0  0  0  0
    4.2810    9.3610   54.8040 C   0  0  0  0  0  0  0  0  0  0  0  0
    4.2910    9.8630   53.5250 C   0  0  0  0  0  0  0  0  0  0  0  0
    1.1290    0.5200   49.0430 C   0  0  0  0  0  0  0  0  0  0  0  0
    3.6940    8.0480   54.7450 C   0  0  0  0  0  0  0  0  0  0  0  0
    3.6470    8.8770   52.6890 C   0  0  0  0  0  0  0  0  0  0  0  0
    1.8740    1.9310   51.4320 C   0  0  0  0  0  0  0  0  0  0  0  0
    2.7940    5.6680   51.9400 C   0  0  0  0  0  0  0  0  0  0  0  0
    3.8130    0.3700   51.3170 C   0  0  0  0  0  0  0  0  0  0  0  0
    1.6190   -0.1770   50.3060 C   0  0  0  0  0  0  0  0  0  0  0  0
    2.8200    3.1150   51.6380 C   0  0  0  0  0  0  0  0  0  0  0  0
    2.2790    6.8050   52.8540 C   0  0  0  0  0  0  0  0  0  0  0  0
    3.2400    7.8070   53.4450 N   0  0  0  0  0  0  0  0  0  0  0  0
    2.4030    0.7140   51.1680 N   0  0  0  0  0  0  0  0  0  0  0  0
    3.6500    7.2520   55.6460 O   0  0  0  0  0  0  0  0  0  0  0  0
    3.4940    8.8470   51.5000 O   0  0  0  0  0  0  0  0  0  0  0  0
    0.6630    2.0820   51.2980 O   0  0  0  0  0  0  0  0  0  0  0  0
    3.5290    5.8250   50.9710 O   0  0  0  0  0  0  0  0  0  0  0  0
    2.3160    4.4210   52.1530 O   0  0  0  0  0  0  0  0  0  0  0  0
  1  4  2  0
  1  5  1  0
  2  3  2  0
  2  6  1  0
  3  7  1  0
  4  8  1  0
  5  9  2  0
  6 10  2  0
  7 11  2  0
  8 12  2  0
  9 12  1  0
 10 11  1  0
 10 13  1  0
 11 14  1  0
 12 18  1  0
 13 21  1  0
 13 23  2  0
 14 21  1  0
 14 24  2  0
 15 19  1  0
 15 22  1  0
 15 25  2  0
 16 20  1  0
 16 26  2  0
 16 27  1  0
 17 22  1  0
 18 22  1  0
 19 27  1  0
 20 21  1  0
M  END
>  <washed_aromatic_smiles>  (372) 
CN(Cc1ccccc1)C(=O)COC(=O)CN2C(=O)c3ccccc3C2=O

>  <name>  (372) 
neg9143

$$$$
neg2399
     RDKit          3D

 28 30  0  0  0  0  0  0  0  0999 V2000
   -0.8050   -0.0420   48.6960 C   0  0  0  0  0  0  0  0  0  0  0  0
    4.8370    9.0540   57.8070 C   0  0  0  0  0  0  0  0  0  0  0  0
   -0.3300    0.2140   49.9800 C   0  0  0  0  0  0  0  0  0  0  0  0
   -0.2350    0.6140   47.6100 C   0  0  0  0  0  0  0  0  0  0  0  0
    4.6550    7.9380   56.9980 C   0  0  0  0  0  0  0  0  0  0  0  0
    4.0050   10.1580   57.6560 C   0  0  0  0  0  0  0  0  0  0  0  0
    3.4590    5.5360   52.6320 C   0  0  0  0  0  0  0  0  0  0  0  0
    1.2620    5.6430   51.6510 C   0  0  0  0  0  0  0  0  0  0  0  0
    0.7970    0.9880   50.1550 C   0  0  0  0  0  0  0  0  0  0  0  0
    0.8520    1.4460   47.7920 C   0  0  0  0  0  0  0  0  0  0  0  0
    3.6520    7.9270   56.0350 C   0  0  0  0  0  0  0  0  0  0  0  0
    2.9950   10.1510   56.7010 C   0  0  0  0  0  0  0  0  0  0  0  0
    3.3710    6.8490   52.9910 C   0  0  0  0  0  0  0  0  0  0  0  0
    1.1480    6.9480   52.0760 C   0  0  0  0  0  0  0  0  0  0  0  0
    2.4450    4.9440   51.8830 C   0  0  0  0  0  0  0  0  0  0  0  0
    1.4050    1.5790   49.0570 C   0  0  0  0  0  0  0  0  0  0  0  0
    2.8180    9.0360   55.8710 C   0  0  0  0  0  0  0  0  0  0  0  0
    2.2250    7.5510   52.7130 C   0  0  0  0  0  0  0  0  0  0  0  0
    2.6340    3.6470   51.2880 C   0  0  0  0  0  0  0  0  0  0  0  0
    0.4980    8.4220   55.0560 C   0  0  0  0  0  0  0  0  0  0  0  0
    2.3850    4.7350   49.0240 C   0  0  0  0  0  0  0  0  0  0  0  0
    2.6860    2.3070   49.2540 C   0  0  0  0  0  0  0  0  0  0  0  0
    1.8000    9.0690   54.8700 N   0  0  0  0  0  0  0  0  0  0  0  0
    2.5490    3.5710   49.9150 N   0  0  0  0  0  0  0  0  0  0  0  0
    2.9050    2.6500   51.9560 O   0  0  0  0  0  0  0  0  0  0  0  0
    3.4410    9.8150   53.0780 O   0  0  0  0  0  0  0  0  0  0  0  0
    1.0690    9.8070   52.5450 O   0  0  0  0  0  0  0  0  0  0  0  0
    2.1600    9.2120   53.2330 S   0  0  0  0  0  0  0  0  0  0  0  0
  1  3  2  0
  1  4  1  0
  2  5  2  0
  2  6  1  0
  3  9  1  0
  4 10  2  0
  5 11  1  0
  6 12  2  0
  7 13  2  0
  7 15  1  0
  8 14  1  0
  8 15  2  0
  9 16  2  0
 10 16  1  0
 11 17  2  0
 12 17  1  0
 13 18  1  0
 14 18  2  0
 15 19  1  0
 16 22  1  0
 17 23  1  0
 18 28  1  0
 19 24  1  0
 19 25  2  0
 20 23  1  0
 21 24  1  0
 22 24  1  0
 23 28  1  0
 26 28  2  0
 27 28  2  0
M  END
>  <washed_aromatic_smiles>  (373) 
CN(Cc1ccccc1)C(=O)c2ccc(cc2)S(=O)(=O)N(C)c3ccccc3

>  <name>  (373) 
neg2399

$$$$
neg183315
     RDKit          3D

 26 28  0  0  0  0  0  0  0  0999 V2000
    1.6590    4.7620   50.0050 C   0  0  0  0  0  0  0  0  0  0  0  0
    2.7860    3.1290   51.3360 C   0  0  0  0  0  0  0  0  0  0  0  0
    1.3640    3.8020   49.0500 C   0  0  0  0  0  0  0  0  0  0  0  0
    2.5340    2.1720   50.3680 C   0  0  0  0  0  0  0  0  0  0  0  0
    2.5310   -1.2420   52.2880 C   0  0  0  0  0  0  0  0  0  0  0  0
    0.9660    0.4400   52.9930 C   0  0  0  0  0  0  0  0  0  0  0  0
    2.0820   -1.1040   50.9850 C   0  0  0  0  0  0  0  0  0  0  0  0
    0.4630    0.5220   51.6990 C   0  0  0  0  0  0  0  0  0  0  0  0
    2.3820    4.4580   51.1600 C   0  0  0  0  0  0  0  0  0  0  0  0
    1.7130    2.4640   49.2720 C   0  0  0  0  0  0  0  0  0  0  0  0
    1.9970   -0.4410   53.2810 C   0  0  0  0  0  0  0  0  0  0  0  0
    1.0490   -0.2260   50.6740 C   0  0  0  0  0  0  0  0  0  0  0  0
    2.8000    5.5060   52.0980 C   0  0  0  0  0  0  0  0  0  0  0  0
    0.6120    7.8960   53.5320 C   0  0  0  0  0  0  0  0  0  0  0  0
    1.7800    8.8380   53.2760 C   0  0  0  0  0  0  0  0  0  0  0  0
    0.7540    6.8530   52.4240 C   0  0  0  0  0  0  0  0  0  0  0  0
    2.8300    7.9230   52.6670 C   0  0  0  0  0  0  0  0  0  0  0  0
    0.6500    1.7780   47.1170 C   0  0  0  0  0  0  0  0  0  0  0  0
    3.0660    0.6880   55.1060 C   0  0  0  0  0  0  0  0  0  0  0  0
    2.1690    6.7320   52.1330 N   0  0  0  0  0  0  0  0  0  0  0  0
    1.2240    1.4230   48.4170 N   0  0  0  0  0  0  0  0  0  0  0  0
    3.7430    5.3560   52.8670 O   0  0  0  0  0  0  0  0  0  0  0  0
    1.1340   -1.1050   48.2150 O   0  0  0  0  0  0  0  0  0  0  0  0
   -0.8570    0.0170   48.9320 O   0  0  0  0  0  0  0  0  0  0  0  0
    2.5190   -0.5210   54.5420 O   0  0  0  0  0  0  0  0  0  0  0  0
    0.5550   -0.0490   48.9660 S   0  0  0  0  0  0  0  0  0  0  0  0
  1  3  2  0
  1  9  1  0
  2  4  1  0
  2  9  2  0
  3 10  1  0
  4 10  2  0
  5  7  2  0
  5 11  1  0
  6  8  1  0
  6 11  2  0
  7 12  1  0
  8 12  2  0
  9 13  1  0
 10 21  1  0
 11 25  1  0
 12 26  1  0
 13 20  1  0
 13 22  2  0
 14 15  1  0
 14 16  1  0
 15 17  1  0
 16 20  1  0
 17 20  1  0
 18 21  1  0
 19 25  1  0
 21 26  1  0
 23 26  2  0
 24 26  2  0
M  END
>  <washed_aromatic_smiles>  (374) 
CN(c1ccc(cc1)C(=O)N2CCCC2)S(=O)(=O)c3ccc(cc3)OC

>  <name>  (374) 
neg183315

$$$$
neg20031
     RDKit          3D

 26 28  0  0  0  0  0  0  0  0999 V2000
    0.1440    1.7220   46.5810 C   0  0  0  0  0  0  0  0  0  0  0  0
   -0.5510    0.7540   47.2900 C   0  0  0  0  0  0  0  0  0  0  0  0
    1.2140    2.3540   47.1830 C   0  0  0  0  0  0  0  0  0  0  0  0
    1.4860    5.5380   50.9630 C   0  0  0  0  0  0  0  0  0  0  0  0
    3.1510    5.1770   52.6180 C   0  0  0  0  0  0  0  0  0  0  0  0
    1.5520    4.1950   50.5890 C   0  0  0  0  0  0  0  0  0  0  0  0
    2.9970    3.8200   52.4160 C   0  0  0  0  0  0  0  0  0  0  0  0
   -0.1720    0.4030   48.5720 C   0  0  0  0  0  0  0  0  0  0  0  0
    1.6140    1.9860   48.4440 C   0  0  0  0  0  0  0  0  0  0  0  0
    2.2870    6.0610   51.9950 C   0  0  0  0  0  0  0  0  0  0  0  0
    2.3230    3.2940   51.3420 C   0  0  0  0  0  0  0  0  0  0  0  0
    0.8820    1.0610   49.1740 C   0  0  0  0  0  0  0  0  0  0  0  0
    2.0890    7.4120   52.5240 C   0  0  0  0  0  0  0  0  0  0  0  0
    5.9670    9.4820   54.0180 C   0  0  0  0  0  0  0  0  0  0  0  0
    5.3890   10.2970   52.8680 C   0  0  0  0  0  0  0  0  0  0  0  0
    5.3060    8.1510   54.3780 C   0  0  0  0  0  0  0  0  0  0  0  0
    3.9920   10.6580   53.2900 C   0  0  0  0  0  0  0  0  0  0  0  0
    3.7710    7.9500   54.3470 C   0  0  0  0  0  0  0  0  0  0  0  0
    2.8530    9.6380   53.0040 C   0  0  0  0  0  0  0  0  0  0  0  0
    3.6520    1.1280   51.7400 C   0  0  0  0  0  0  0  0  0  0  0  0
    3.1290    8.2190   53.0470 N   0  0  0  0  0  0  0  0  0  0  0  0
    2.4910    1.8640   51.1820 N   0  0  0  0  0  0  0  0  0  0  0  0
    0.9450    7.8790   52.5480 O   0  0  0  0  0  0  0  0  0  0  0  0
    0.0850    1.1900   51.6440 O   0  0  0  0  0  0  0  0  0  0  0  0
    1.6610   -0.5430   51.0410 O   0  0  0  0  0  0  0  0  0  0  0  0
    1.2230    0.8020   50.8850 S   0  0  0  0  0  0  0  0  0  0  0  0
  1  2  2  0
  1  3  1  0
  2  8  1  0
  3  9  2  0
  4  6  2  0
  4 10  1  0
  5  7  1  0
  5 10  2  0
  6 11  1  0
  7 11  2  0
  8 12  2  0
  9 12  1  0
 10 13  1  0
 11 22  1  0
 12 26  1  0
 13 21  1  0
 13 23  2  0
 14 15  1  0
 14 16  1  0
 15 17  1  0
 16 18  1  0
 17 19  1  0
 18 21  1  0
 19 21  1  0
 20 22  1  0
 22 26  1  0
 24 26  2  0
 25 26  2  0
M  END
>  <washed_aromatic_smiles>  (375) 
CN(c1ccc(cc1)C(=O)N2CCCCCC2)S(=O)(=O)c3ccccc3

>  <name>  (375) 
neg20031

$$$$
neg283197
     RDKit          3D

 27 29  0  0  0  0  0  0  0  0999 V2000
    1.8790    4.7110   49.8700 C   0  0  0  0  0  0  0  0  0  0  0  0
    2.8460    4.2220   52.0030 C   0  0  0  0  0  0  0  0  0  0  0  0
    3.8540    9.8740   56.9440 C   0  0  0  0  0  0  0  0  0  0  0  0
    5.1920   11.0730   55.3030 C   0  0  0  0  0  0  0  0  0  0  0  0
    1.6560    3.3670   49.6410 C   0  0  0  0  0  0  0  0  0  0  0  0
    2.6640    2.8650   51.7740 C   0  0  0  0  0  0  0  0  0  0  0  0
    4.2980   10.7490   57.9310 C   0  0  0  0  0  0  0  0  0  0  0  0
    5.6070   11.9610   56.2860 C   0  0  0  0  0  0  0  0  0  0  0  0
    2.4870    5.1720   51.0510 C   0  0  0  0  0  0  0  0  0  0  0  0
    4.3050   10.0190   55.6170 C   0  0  0  0  0  0  0  0  0  0  0  0
    2.0240    2.4240   50.6050 C   0  0  0  0  0  0  0  0  0  0  0  0
    5.1690   11.7740   57.5880 C   0  0  0  0  0  0  0  0  0  0  0  0
    2.8870    6.5740   51.1400 C   0  0  0  0  0  0  0  0  0  0  0  0
    2.7710    8.1500   54.7690 C   0  0  0  0  0  0  0  0  0  0  0  0
    4.1330    9.4580   53.1970 C   0  0  0  0  0  0  0  0  0  0  0  0
    2.6770    7.0140   53.7040 C   0  0  0  0  0  0  0  0  0  0  0  0
    3.1770    8.8270   52.1820 C   0  0  0  0  0  0  0  0  0  0  0  0
    0.4020    0.7220   49.8290 C   0  0  0  0  0  0  0  0  0  0  0  0
    1.5640   -0.1380   52.8430 C   0  0  0  0  0  0  0  0  0  0  0  0
    3.8860    9.1030   54.5930 N   0  0  0  0  0  0  0  0  0  0  0  0
    2.8930    7.3970   52.3080 N   0  0  0  0  0  0  0  0  0  0  0  0
    1.7360    1.0580   50.3630 N   0  0  0  0  0  0  0  0  0  0  0  0
    3.3070    7.0810   50.1020 O   0  0  0  0  0  0  0  0  0  0  0  0
    3.7970    0.0910   51.4980 O   0  0  0  0  0  0  0  0  0  0  0  0
    2.1230   -1.4190   50.6510 O   0  0  0  0  0  0  0  0  0  0  0  0
    5.6210   12.6020   58.5510 F   0  0  0  0  0  0  0  0  0  0  0  0
    2.4210   -0.1830   51.2750 S   0  0  0  0  0  0  0  0  0  0  0  0
  1  5  2  0
  1  9  1  0
  2  6  1  0
  2  9  2  0
  3  7  2  0
  3 10  1  0
  4  8  1  0
  4 10  2  0
  5 11  1  0
  6 11  2  0
  7 12  1  0
  8 12  2  0
  9 13  1  0
 10 20  1  0
 11 22  1  0
 12 26  1  0
 13 21  1  0
 13 23  2  0
 14 16  1  0
 14 20  1  0
 15 17  1  0
 15 20  1  0
 16 21  1  0
 17 21  1  0
 18 22  1  0
 19 27  1  0
 22 27  1  0
 24 27  2  0
 25 27  2  0
M  END
>  <washed_aromatic_smiles>  (376) 
CN(c1ccc(cc1)C(=O)N2CCN(CC2)c3ccc(cc3)F)S(=O)(=O)C

>  <name>  (376) 
neg283197

$$$$
neg175396
     RDKit          3D

 26 28  0  0  0  0  0  0  0  0999 V2000
    2.2460   -0.5770   53.6140 C   0  0  0  0  0  0  0  0  0  0  0  0
    2.7260   -1.2690   52.5180 C   0  0  0  0  0  0  0  0  0  0  0  0
    1.2330    0.3420   53.4270 C   0  0  0  0  0  0  0  0  0  0  0  0
    3.8760    8.4310   55.1610 C   0  0  0  0  0  0  0  0  0  0  0  0
    4.1290    9.6860   54.6280 C   0  0  0  0  0  0  0  0  0  0  0  0
    1.8210    4.3200   50.9320 C   0  0  0  0  0  0  0  0  0  0  0  0
    2.9660    4.8190   48.8900 C   0  0  0  0  0  0  0  0  0  0  0  0
    1.4550    3.0940   50.4270 C   0  0  0  0  0  0  0  0  0  0  0  0
    2.5790    3.5880   48.3670 C   0  0  0  0  0  0  0  0  0  0  0  0
    2.3110   -0.9570   51.2340 C   0  0  0  0  0  0  0  0  0  0  0  0
    0.6870    0.5210   52.1650 C   0  0  0  0  0  0  0  0  0  0  0  0
    3.3930    7.4490   54.3150 C   0  0  0  0  0  0  0  0  0  0  0  0
    3.8700    9.9170   53.2800 C   0  0  0  0  0  0  0  0  0  0  0  0
    2.5850    5.2060   50.1850 C   0  0  0  0  0  0  0  0  0  0  0  0
    1.7960    2.7080   49.1360 C   0  0  0  0  0  0  0  0  0  0  0  0
    1.2790   -0.0590   51.0400 C   0  0  0  0  0  0  0  0  0  0  0  0
    3.1790    7.7470   52.9660 C   0  0  0  0  0  0  0  0  0  0  0  0
    2.9420    6.4960   50.7510 C   0  0  0  0  0  0  0  0  0  0  0  0
    0.6870    1.5990   47.2680 C   0  0  0  0  0  0  0  0  0  0  0  0
    3.3930    8.9690   52.4740 N   0  0  0  0  0  0  0  0  0  0  0  0
    2.7560    6.6880   52.1290 N   0  0  0  0  0  0  0  0  0  0  0  0
    1.3210    1.4700   48.5970 N   0  0  0  0  0  0  0  0  0  0  0  0
    3.4090    7.3790   50.0570 O   0  0  0  0  0  0  0  0  0  0  0  0
    0.9120   -1.0370   48.6560 O   0  0  0  0  0  0  0  0  0  0  0  0
   -0.7870    0.3720   49.5860 O   0  0  0  0  0  0  0  0  0  0  0  0
    0.5900    0.1310   49.3970 S   0  0  0  0  0  0  0  0  0  0  0  0
  1  2  2  0
  1  3  1  0
  2 10  1  0
  3 11  2  0
  4  5  2  0
  4 12  1  0
  5 13  1  0
  6  8  2  0
  6 14  1  0
  7  9  1  0
  7 14  2  0
  8 15  1  0
  9 15  2  0
 10 16  2  0
 11 16  1  0
 12 17  2  0
 13 20  2  0
 14 18  1  0
 15 22  1  0
 16 26  1  0
 17 20  1  0
 17 21  1  0
 18 21  1  0
 18 23  2  0
 19 22  1  0
 22 26  1  0
 24 26  2  0
 25 26  2  0
M  END
>  <washed_aromatic_smiles>  (377) 
CN(c1ccc(cc1)C(=O)Nc2ccccn2)S(=O)(=O)c3ccccc3

>  <name>  (377) 
neg175396

$$$$
neg176912
     RDKit          3D

 25 27  0  0  0  0  0  0  0  0999 V2000
    2.8450    3.9840   48.3560 C   0  0  0  0  0  0  0  0  0  0  0  0
    5.4700   12.3340   58.5170 C   0  0  0  0  0  0  0  0  0  0  0  0
    2.0820    3.2930   49.2900 C   0  0  0  0  0  0  0  0  0  0  0  0
    3.2740    5.2770   48.6360 C   0  0  0  0  0  0  0  0  0  0  0  0
    4.8600   11.1240   58.2180 C   0  0  0  0  0  0  0  0  0  0  0  0
    5.9030   13.1590   57.4880 C   0  0  0  0  0  0  0  0  0  0  0  0
    1.7360    3.9040   50.4880 C   0  0  0  0  0  0  0  0  0  0  0  0
    2.9840    5.8760   49.8500 C   0  0  0  0  0  0  0  0  0  0  0  0
    4.7120   10.7250   56.8950 C   0  0  0  0  0  0  0  0  0  0  0  0
    5.7750   12.7460   56.1640 C   0  0  0  0  0  0  0  0  0  0  0  0
    2.1770    5.2030   50.7600 C   0  0  0  0  0  0  0  0  0  0  0  0
    5.2050   11.5140   55.8490 C   0  0  0  0  0  0  0  0  0  0  0  0
    2.7580    6.3050   52.8400 C   0  0  0  0  0  0  0  0  0  0  0  0
    2.0090    8.6190   53.2000 C   0  0  0  0  0  0  0  0  0  0  0  0
    3.3480    7.5430   54.8770 C   0  0  0  0  0  0  0  0  0  0  0  0
    3.1840    9.5630   52.9120 C   0  0  0  0  0  0  0  0  0  0  0  0
    4.5460    8.4320   54.5310 C   0  0  0  0  0  0  0  0  0  0  0  0
    0.3520    6.1490   52.1060 C   0  0  0  0  0  0  0  0  0  0  0  0
    2.4670    7.3330   53.7260 N   0  0  0  0  0  0  0  0  0  0  0  0
    4.0800    9.7380   54.0590 N   0  0  0  0  0  0  0  0  0  0  0  0
    1.7830    5.8970   51.9270 N   0  0  0  0  0  0  0  0  0  0  0  0
    3.8360    5.7110   52.8880 O   0  0  0  0  0  0  0  0  0  0  0  0
    4.5500   12.1430   53.3980 O   0  0  0  0  0  0  0  0  0  0  0  0
    6.4050   10.6210   53.6840 O   0  0  0  0  0  0  0  0  0  0  0  0
    5.1120   11.0400   54.1070 S   0  0  0  0  0  0  0  0  0  0  0  0
  1  3  2  0
  1  4  1  0
  2  5  2  0
  2  6  1  0
  3  7  1  0
  4  8  2  0
  5  9  1  0
  6 10  2  0
  7 11  2  0
  8 11  1  0
  9 12  2  0
 10 12  1  0
 11 21  1  0
 12 25  1  0
 13 19  1  0
 13 21  1  0
 13 22  2  0
 14 16  1  0
 14 19  1  0
 15 17  1  0
 15 19  1  0
 16 20  1  0
 17 20  1  0
 18 21  1  0
 20 25  1  0
 23 25  2  0
 24 25  2  0
M  END
>  <washed_aromatic_smiles>  (378) 
CN(c1ccccc1)C(=O)N2CCN(CC2)S(=O)(=O)c3ccccc3

>  <name>  (378) 
neg176912

$$$$
neg16905
     RDKit          3D

 30 32  0  0  0  0  0  0  0  0999 V2000
    3.6500    0.7310   56.2340 C   0  0  0  0  0  0  0  0  0  0  0  0
   -0.2380    0.0630   48.7500 C   0  0  0  0  0  0  0  0  0  0  0  0
    0.0370    0.8500   47.6410 C   0  0  0  0  0  0  0  0  0  0  0  0
    3.0730    1.7760   55.5450 C   0  0  0  0  0  0  0  0  0  0  0  0
    3.7260   -0.5150   55.6310 C   0  0  0  0  0  0  0  0  0  0  0  0
    0.4220    0.2900   49.9530 C   0  0  0  0  0  0  0  0  0  0  0  0
    0.9270    1.8980   47.7550 C   0  0  0  0  0  0  0  0  0  0  0  0
    0.8160    7.3640   52.7030 C   0  0  0  0  0  0  0  0  0  0  0  0
    2.9710    6.9400   53.6860 C   0  0  0  0  0  0  0  0  0  0  0  0
    1.1640    6.5840   51.6120 C   0  0  0  0  0  0  0  0  0  0  0  0
    3.3190    6.1760   52.5860 C   0  0  0  0  0  0  0  0  0  0  0  0
    2.7180    1.6130   54.2130 C   0  0  0  0  0  0  0  0  0  0  0  0
    3.2200   -0.7220   54.3480 C   0  0  0  0  0  0  0  0  0  0  0  0
    1.7330    7.5870   53.7350 C   0  0  0  0  0  0  0  0  0  0  0  0
    1.4350    1.2570   50.0580 C   0  0  0  0  0  0  0  0  0  0  0  0
    1.5980    2.1440   48.9550 C   0  0  0  0  0  0  0  0  0  0  0  0
    2.4420    6.0460   51.5170 C   0  0  0  0  0  0  0  0  0  0  0  0
    2.7620    0.3680   53.5920 C   0  0  0  0  0  0  0  0  0  0  0  0
    2.3210    1.2930   51.2560 C   0  0  0  0  0  0  0  0  0  0  0  0
    1.3530    8.4330   54.8550 C   0  0  0  0  0  0  0  0  0  0  0  0
    2.3930    3.3520   49.0010 C   0  0  0  0  0  0  0  0  0  0  0  0
    2.6060   -1.0800   51.5760 C   0  0  0  0  0  0  0  0  0  0  0  0
    3.6420    9.4600   55.2770 C   0  0  0  0  0  0  0  0  0  0  0  0
    2.8800    5.3630   50.2510 C   0  0  0  0  0  0  0  0  0  0  0  0
    2.3800    0.2250   52.1790 N   0  0  0  0  0  0  0  0  0  0  0  0
    3.1290    2.1900   51.4430 O   0  0  0  0  0  0  0  0  0  0  0  0
    0.2000    8.5030   55.2370 O   0  0  0  0  0  0  0  0  0  0  0  0
    3.2600    3.6360   48.1880 O   0  0  0  0  0  0  0  0  0  0  0  0
    2.2570    9.1550   55.5770 O   0  0  0  0  0  0  0  0  0  0  0  0
    2.0790    4.2170   49.9750 O   0  0  0  0  0  0  0  0  0  0  0  0
  1  4  2  0
  1  5  1  0
  2  3  2  0
  2  6  1  0
  3  7  1  0
  4 12  1  0
  5 13  2  0
  6 15  2  0
  7 16  2  0
  8 10  2  0
  8 14  1  0
  9 11  1  0
  9 14  2  0
 10 17  1  0
 11 17  2  0
 12 18  2  0
 13 18  1  0
 14 20  1  0
 15 16  1  0
 15 19  1  0
 16 21  1  0
 17 24  1  0
 18 25  1  0
 19 25  1  0
 19 26  2  0
 20 27  2  0
 20 29  1  0
 21 28  2  0
 21 30  1  0
 22 25  1  0
 23 29  1  0
 24 30  1  0
M  END
>  <washed_aromatic_smiles>  (379) 
CN(c1ccccc1)C(=O)c2ccccc2C(=O)OCc3ccc(cc3)C(=O)OC

>  <name>  (379) 
neg16905

$$$$
neg51982
     RDKit          3D

 28 30  0  0  0  0  0  0  0  0999 V2000
    2.0590   -0.3810   53.2120 C   0  0  0  0  0  0  0  0  0  0  0  0
    5.2190   12.8980   56.1070 C   0  0  0  0  0  0  0  0  0  0  0  0
    2.4560   -0.8940   51.9890 C   0  0  0  0  0  0  0  0  0  0  0  0
    1.0710    0.5890   53.2460 C   0  0  0  0  0  0  0  0  0  0  0  0
    4.9910   11.6590   56.7040 C   0  0  0  0  0  0  0  0  0  0  0  0
    5.2640   13.0090   54.7180 C   0  0  0  0  0  0  0  0  0  0  0  0
    1.9130   -0.4020   50.8090 C   0  0  0  0  0  0  0  0  0  0  0  0
    0.4990    1.0670   52.0710 C   0  0  0  0  0  0  0  0  0  0  0  0
    1.5560    5.5180   51.6400 C   0  0  0  0  0  0  0  0  0  0  0  0
    3.2150    6.0400   49.9680 C   0  0  0  0  0  0  0  0  0  0  0  0
    4.8000   10.5300   55.9150 C   0  0  0  0  0  0  0  0  0  0  0  0
    5.0820   11.8850   53.9200 C   0  0  0  0  0  0  0  0  0  0  0  0
    1.3020    4.3290   50.9750 C   0  0  0  0  0  0  0  0  0  0  0  0
    2.9350    4.8450   49.3190 C   0  0  0  0  0  0  0  0  0  0  0  0
    2.5360    6.3650   51.1420 C   0  0  0  0  0  0  0  0  0  0  0  0
    1.0010    0.6630   50.8450 C   0  0  0  0  0  0  0  0  0  0  0  0
    4.8380   10.6550   54.5270 C   0  0  0  0  0  0  0  0  0  0  0  0
    1.9780    3.9640   49.8260 C   0  0  0  0  0  0  0  0  0  0  0  0
    3.0100    7.7670   53.1360 C   0  0  0  0  0  0  0  0  0  0  0  0
    0.1170    0.4310   48.6520 C   0  0  0  0  0  0  0  0  0  0  0  0
    3.2000    9.1890   53.5970 C   0  0  0  0  0  0  0  0  0  0  0  0
    2.8110    7.5850   51.7910 N   0  0  0  0  0  0  0  0  0  0  0  0
    0.5760    1.3800   49.6860 N   0  0  0  0  0  0  0  0  0  0  0  0
    3.0410    6.8270   53.9060 O   0  0  0  0  0  0  0  0  0  0  0  0
    1.3940    2.6880   47.6440 O   0  0  0  0  0  0  0  0  0  0  0  0
    3.0060    1.7500   49.1700 O   0  0  0  0  0  0  0  0  0  0  0  0
    4.5940    9.5600   53.7460 O   0  0  0  0  0  0  0  0  0  0  0  0
    1.7710    2.3910   48.9850 S   0  0  0  0  0  0  0  0  0  0  0  0
  1  3  2  0
  1  4  1  0
  2  5  2  0
  2  6  1  0
  3  7  1  0
  4  8  2  0
  5 11  1  0
  6 12  2  0
  7 16  2  0
  8 16  1  0
  9 13  2  0
  9 15  1  0
 10 14  1  0
 10 15  2  0
 11 17  2  0
 12 17  1  0
 13 18  1  0
 14 18  2  0
 15 22  1  0
 16 23  1  0
 17 27  1  0
 18 28  1  0
 19 21  1  0
 19 22  1  0
 19 24  2  0
 20 23  1  0
 21 27  1  0
 23 28  1  0
 25 28  2  0
 26 28  2  0
M  END
>  <washed_aromatic_smiles>  (380) 
CN(c1ccccc1)S(=O)(=O)c2ccc(cc2)NC(=O)COc3ccccc3

>  <name>  (380) 
neg51982

$$$$
neg178048
     RDKit          3D

 25 27  0  0  0  0  0  0  0  0999 V2000
    5.5220   12.4840   57.8310 C   0  0  0  0  0  0  0  0  0  0  0  0
    5.0650   11.2840   58.3660 C   0  0  0  0  0  0  0  0  0  0  0  0
    5.3140   12.7640   56.4850 C   0  0  0  0  0  0  0  0  0  0  0  0
    0.7400    1.1250   48.2580 C   0  0  0  0  0  0  0  0  0  0  0  0
    4.3880   10.3690   57.5690 C   0  0  0  0  0  0  0  0  0  0  0  0
    4.6520   11.8560   55.6740 C   0  0  0  0  0  0  0  0  0  0  0  0
    2.9040    7.0980   51.0540 C   0  0  0  0  0  0  0  0  0  0  0  0
    3.2370    5.4760   52.7470 C   0  0  0  0  0  0  0  0  0  0  0  0
    3.1460    8.1190   51.9770 C   0  0  0  0  0  0  0  0  0  0  0  0
    3.4580    6.4990   53.6710 C   0  0  0  0  0  0  0  0  0  0  0  0
    1.4050    1.3550   49.4590 C   0  0  0  0  0  0  0  0  0  0  0  0
    0.6780    2.3110   47.6090 C   0  0  0  0  0  0  0  0  0  0  0  0
    2.9010    5.7700   51.4360 C   0  0  0  0  0  0  0  0  0  0  0  0
    4.1720   10.6550   56.2110 C   0  0  0  0  0  0  0  0  0  0  0  0
    3.5290    7.8250   53.2760 C   0  0  0  0  0  0  0  0  0  0  0  0
    1.7250    2.6800   49.5050 C   0  0  0  0  0  0  0  0  0  0  0  0
    2.3840    3.4110   50.5710 C   0  0  0  0  0  0  0  0  0  0  0  0
    2.5740    8.8210   55.9970 C   0  0  0  0  0  0  0  0  0  0  0  0
    2.5290    4.7950   50.4480 N   0  0  0  0  0  0  0  0  0  0  0  0
    3.4770    9.7540   55.3530 N   0  0  0  0  0  0  0  0  0  0  0  0
    2.7960    2.8270   51.5670 O   0  0  0  0  0  0  0  0  0  0  0  0
    5.4980    8.3170   54.9470 O   0  0  0  0  0  0  0  0  0  0  0  0
    4.9690   10.0210   53.3260 O   0  0  0  0  0  0  0  0  0  0  0  0
    1.2820    3.2730   48.3510 O   0  0  0  0  0  0  0  0  0  0  0  0
    4.4960    9.0280   54.2300 S   0  0  0  0  0  0  0  0  0  0  0  0
  1  2  2  0
  1  3  1  0
  2  5  1  0
  3  6  2  0
  4 11  1  0
  4 12  2  0
  5 14  2  0
  6 14  1  0
  7  9  2  0
  7 13  1  0
  8 10  1  0
  8 13  2  0
  9 15  1  0
 10 15  2  0
 11 16  2  0
 12 24  1  0
 13 19  1  0
 14 20  1  0
 15 25  1  0
 16 17  1  0
 16 24  1  0
 17 19  1  0
 17 21  2  0
 18 20  1  0
 20 25  1  0
 22 25  2  0
 23 25  2  0
M  END
>  <washed_aromatic_smiles>  (381) 
CN(c1ccccc1)S(=O)(=O)c2ccc(cc2)NC(=O)c3ccco3

>  <name>  (381) 
neg178048

$$$$
neg18264
     RDKit          3D

 26 28  0  0  0  0  0  0  0  0999 V2000
    5.3040   13.1550   53.4940 C   0  0  0  0  0  0  0  0  0  0  0  0
    5.0970   13.4660   54.8320 C   0  0  0  0  0  0  0  0  0  0  0  0
    5.2890   11.8290   53.0900 C   0  0  0  0  0  0  0  0  0  0  0  0
    0.7840    8.6010   55.1320 C   0  0  0  0  0  0  0  0  0  0  0  0
    0.6500    7.9430   53.9380 C   0  0  0  0  0  0  0  0  0  0  0  0
    4.9240   12.4650   55.7740 C   0  0  0  0  0  0  0  0  0  0  0  0
    5.0610   10.8200   54.0050 C   0  0  0  0  0  0  0  0  0  0  0  0
    2.0410    8.7990   55.6880 C   0  0  0  0  0  0  0  0  0  0  0  0
    3.0130    7.4790   53.9250 C   0  0  0  0  0  0  0  0  0  0  0  0
    1.7370    7.3030   53.3580 C   0  0  0  0  0  0  0  0  0  0  0  0
    4.9200   11.1210   55.3710 C   0  0  0  0  0  0  0  0  0  0  0  0
    3.1680    8.2340   55.0960 C   0  0  0  0  0  0  0  0  0  0  0  0
    1.4230    6.4330   52.2350 C   0  0  0  0  0  0  0  0  0  0  0  0
    2.8790    3.5030   48.1220 C   0  0  0  0  0  0  0  0  0  0  0  0
    2.8720    5.0120   48.3400 C   0  0  0  0  0  0  0  0  0  0  0  0
    2.0620    2.7300   49.1680 C   0  0  0  0  0  0  0  0  0  0  0  0
    3.1660    5.4300   49.7590 C   0  0  0  0  0  0  0  0  0  0  0  0
    2.2930    3.2180   50.6060 C   0  0  0  0  0  0  0  0  0  0  0  0
    2.1440    4.7450   50.6450 C   0  0  0  0  0  0  0  0  0  0  0  0
    4.3430   10.4470   57.7100 C   0  0  0  0  0  0  0  0  0  0  0  0
    2.2170    5.3490   51.9610 N   0  0  0  0  0  0  0  0  0  0  0  0
    4.8000   10.0900   56.3560 N   0  0  0  0  0  0  0  0  0  0  0  0
    0.4000    6.5930   51.5730 O   0  0  0  0  0  0  0  0  0  0  0  0
    4.7430    7.6510   57.0980 O   0  0  0  0  0  0  0  0  0  0  0  0
    5.7980    8.1950   55.0000 O   0  0  0  0  0  0  0  0  0  0  0  0
    4.7520    8.4540   55.9230 S   0  0  0  0  0  0  0  0  0  0  0  0
  1  2  2  0
  1  3  1  0
  2  6  1  0
  3  7  2  0
  4  5  2  0
  4  8  1  0
  5 10  1  0
  6 11  2  0
  7 11  1  0
  8 12  2  0
  9 10  2  0
  9 12  1  0
 10 13  1  0
 11 22  1  0
 12 26  1  0
 13 21  1  0
 13 23  2  0
 14 15  1  0
 14 16  1  0
 15 17  1  0
 16 18  1  0
 17 19  1  0
 18 19  1  0
 19 21  1  0
 20 22  1  0
 22 26  1  0
 24 26  2  0
 25 26  2  0
M  END
>  <washed_aromatic_smiles>  (382) 
CN(c1ccccc1)S(=O)(=O)c2cccc(c2)C(=O)NC3CCCCC3

>  <name>  (382) 
neg18264

$$$$
neg16093
     RDKit          3D

 28 30  0  0  0  0  0  0  0  0999 V2000
    5.5840   13.1790   57.3080 C   0  0  0  0  0  0  0  0  0  0  0  0
    0.8680   -1.0350   48.9800 C   0  0  0  0  0  0  0  0  0  0  0  0
    5.2300   13.1960   55.9630 C   0  0  0  0  0  0  0  0  0  0  0  0
    5.4080   12.0170   58.0520 C   0  0  0  0  0  0  0  0  0  0  0  0
    1.8560   -1.0840   49.9600 C   0  0  0  0  0  0  0  0  0  0  0  0
   -0.1930   -0.1530   49.1040 C   0  0  0  0  0  0  0  0  0  0  0  0
    0.8840    8.0590   52.5990 C   0  0  0  0  0  0  0  0  0  0  0  0
    4.7200   12.0610   55.3560 C   0  0  0  0  0  0  0  0  0  0  0  0
    4.8880   10.8730   57.4590 C   0  0  0  0  0  0  0  0  0  0  0  0
    1.0410    6.7400   52.2090 C   0  0  0  0  0  0  0  0  0  0  0  0
    1.9430   -0.1150   50.9240 C   0  0  0  0  0  0  0  0  0  0  0  0
   -0.1680    0.7610   50.1390 C   0  0  0  0  0  0  0  0  0  0  0  0
    1.9650    8.7590   53.1220 C   0  0  0  0  0  0  0  0  0  0  0  0
    3.3430    6.8110   52.9880 C   0  0  0  0  0  0  0  0  0  0  0  0
    4.5310   10.8870   56.0990 C   0  0  0  0  0  0  0  0  0  0  0  0
    2.2910    6.1400   52.3710 C   0  0  0  0  0  0  0  0  0  0  0  0
    0.9870    0.8710   50.8950 C   0  0  0  0  0  0  0  0  0  0  0  0
    3.2000    8.1500   53.3350 C   0  0  0  0  0  0  0  0  0  0  0  0
    2.0410    4.2640   50.7850 C   0  0  0  0  0  0  0  0  0  0  0  0
    3.4340    8.6900   56.3600 C   0  0  0  0  0  0  0  0  0  0  0  0
    2.2780    2.7900   50.6530 C   0  0  0  0  0  0  0  0  0  0  0  0
    2.5360    4.8290   51.9300 N   0  0  0  0  0  0  0  0  0  0  0  0
    3.9130    9.7560   55.4770 N   0  0  0  0  0  0  0  0  0  0  0  0
    1.4150    4.9020   49.9630 O   0  0  0  0  0  0  0  0  0  0  0  0
    5.6300    8.2530   54.3670 O   0  0  0  0  0  0  0  0  0  0  0  0
    4.8560   10.1650   53.1210 O   0  0  0  0  0  0  0  0  0  0  0  0
    1.3090    2.0390   51.4210 O   0  0  0  0  0  0  0  0  0  0  0  0
    4.5530    9.1200   54.0350 S   0  0  0  0  0  0  0  0  0  0  0  0
  1  3  2  0
  1  4  1  0
  2  5  2  0
  2  6  1  0
  3  8  1  0
  4  9  2  0
  5 11  1  0
  6 12  2  0
  7 10  2  0
  7 13  1  0
  8 15  2  0
  9 15  1  0
 10 16  1  0
 11 17  2  0
 12 17  1  0
 13 18  2  0
 14 16  2  0
 14 18  1  0
 15 23  1  0
 16 22  1  0
 17 27  1  0
 18 28  1  0
 19 21  1  0
 19 22  1  0
 19 24  2  0
 20 23  1  0
 21 27  1  0
 23 28  1  0
 25 28  2  0
 26 28  2  0
M  END
>  <washed_aromatic_smiles>  (383) 
CN(c1ccccc1)S(=O)(=O)c2cccc(c2)NC(=O)COc3ccccc3

>  <name>  (383) 
neg16093

$$$$
neg86702
     RDKit          3D

 27 28  0  0  0  0  0  0  0  0999 V2000
    4.1900   10.6070   56.0990 C   0  0  0  0  0  0  0  0  0  0  0  0
    3.5530    9.5860   55.3960 C   0  0  0  0  0  0  0  0  0  0  0  0
    2.1560    2.2340   49.8360 C   0  0  0  0  0  0  0  0  0  0  0  0
    1.0870    3.1890   47.8840 C   0  0  0  0  0  0  0  0  0  0  0  0
    2.7300    3.4600   50.1060 C   0  0  0  0  0  0  0  0  0  0  0  0
    1.6750    4.4080   48.1680 C   0  0  0  0  0  0  0  0  0  0  0  0
    4.5680   10.3600   53.3300 C   0  0  0  0  0  0  0  0  0  0  0  0
    4.9960   11.5320   55.4310 C   0  0  0  0  0  0  0  0  0  0  0  0
    1.3570    2.1080   48.7040 C   0  0  0  0  0  0  0  0  0  0  0  0
    3.7250    9.4800   54.0070 C   0  0  0  0  0  0  0  0  0  0  0  0
    5.1720   11.3780   54.0540 C   0  0  0  0  0  0  0  0  0  0  0  0
    2.5690    4.5270   49.2270 C   0  0  0  0  0  0  0  0  0  0  0  0
    0.2090    0.0160   49.1730 C   0  0  0  0  0  0  0  0  0  0  0  0
    2.7750    7.2210   53.6210 C   0  0  0  0  0  0  0  0  0  0  0  0
    5.6160   12.6890   56.1850 C   0  0  0  0  0  0  0  0  0  0  0  0
   -0.1390    0.3730   50.6090 C   0  0  0  0  0  0  0  0  0  0  0  0
    1.9020    6.3090   52.7650 C   0  0  0  0  0  0  0  0  0  0  0  0
    1.7720    6.6560   51.3140 C   0  0  0  0  0  0  0  0  0  0  0  0
    0.8160    0.8870   48.3350 N   0  0  0  0  0  0  0  0  0  0  0  0
    3.0040    8.5230   53.2420 N   0  0  0  0  0  0  0  0  0  0  0  0
    3.1100    6.7180   50.7730 N   0  0  0  0  0  0  0  0  0  0  0  0
   -0.0350   -1.0540   48.6890 O   0  0  0  0  0  0  0  0  0  0  0  0
    3.2950    6.8100   54.6340 O   0  0  0  0  0  0  0  0  0  0  0  0
    4.9170    5.5360   49.5670 O   0  0  0  0  0  0  0  0  0  0  0  0
    3.4050    6.7880   48.2410 O   0  0  0  0  0  0  0  0  0  0  0  0
    5.9480   12.2630   53.3760 F   0  0  0  0  0  0  0  0  0  0  0  0
    3.5970    5.9730   49.3810 S   0  0  0  0  0  0  0  0  0  0  0  0
  1  2  2  0
  1  8  1  0
  2 10  1  0
  3  5  2  0
  3  9  1  0
  4  6  1  0
  4  9  2  0
  5 12  1  0
  6 12  2  0
  7 10  2  0
  7 11  1  0
  8 11  2  0
  8 15  1  0
  9 19  1  0
 10 20  1  0
 11 26  1  0
 12 27  1  0
 13 16  1  0
 13 19  1  0
 13 22  2  0
 14 17  1  0
 14 20  1  0
 14 23  2  0
 17 18  1  0
 18 21  1  0
 21 27  1  0
 24 27  2  0
 25 27  2  0
M  END
>  <washed_aromatic_smiles>  (384) 
Cc1ccc(cc1F)NC(=O)CCNS(=O)(=O)c2ccc(cc2)NC(=O)C

>  <name>  (384) 
neg86702

$$$$
neg184769
     RDKit          3D

 30 32  0  0  0  0  0  0  0  0999 V2000
    0.3530    1.2920   47.4860 C   0  0  0  0  0  0  0  0  0  0  0  0
    4.9280   11.1170   54.6740 C   0  0  0  0  0  0  0  0  0  0  0  0
    3.3870    9.9970   56.1850 C   0  0  0  0  0  0  0  0  0  0  0  0
    1.1330    2.4230   47.6540 C   0  0  0  0  0  0  0  0  0  0  0  0
    4.5780   10.2250   53.6740 C   0  0  0  0  0  0  0  0  0  0  0  0
    3.0440    9.1040   55.1840 C   0  0  0  0  0  0  0  0  0  0  0  0
    1.2140    2.0370   50.0510 C   0  0  0  0  0  0  0  0  0  0  0  0
   -0.0670    0.5810   48.6070 C   0  0  0  0  0  0  0  0  0  0  0  0
    4.3510   10.9950   55.9500 C   0  0  0  0  0  0  0  0  0  0  0  0
    3.6430    9.2230   53.9300 C   0  0  0  0  0  0  0  0  0  0  0  0
    1.4660    2.8320   48.9370 C   0  0  0  0  0  0  0  0  0  0  0  0
    0.4310    0.9190   49.8610 C   0  0  0  0  0  0  0  0  0  0  0  0
    2.3660    7.4490   52.6570 C   0  0  0  0  0  0  0  0  0  0  0  0
    3.2300    4.4740   48.8270 C   0  0  0  0  0  0  0  0  0  0  0  0
    5.7030   12.9210   56.7700 C   0  0  0  0  0  0  0  0  0  0  0  0
    5.0780   11.0340   58.1990 C   0  0  0  0  0  0  0  0  0  0  0  0
    6.2080   13.6480   58.0350 C   0  0  0  0  0  0  0  0  0  0  0  0
    5.6320   11.8130   59.3810 C   0  0  0  0  0  0  0  0  0  0  0  0
   -1.1940   -0.3840   48.4700 C   0  0  0  0  0  0  0  0  0  0  0  0
    2.8200    4.5450   51.8080 C   0  0  0  0  0  0  0  0  0  0  0  0
    2.4200    6.8300   51.2830 C   0  0  0  0  0  0  0  0  0  0  0  0
    3.7920    5.5940   49.6720 C   0  0  0  0  0  0  0  0  0  0  0  0
    4.7280   11.8400   57.0290 N   0  0  0  0  0  0  0  0  0  0  0  0
    3.3640    8.3630   52.8520 N   0  0  0  0  0  0  0  0  0  0  0  0
    1.9620    4.1130   49.1310 N   0  0  0  0  0  0  0  0  0  0  0  0
    3.3370    5.7220   51.1150 N   0  0  0  0  0  0  0  0  0  0  0  0
    1.5070    7.2000   53.4830 O   0  0  0  0  0  0  0  0  0  0  0  0
    3.8560    3.8890   47.9610 O   0  0  0  0  0  0  0  0  0  0  0  0
    6.6270   12.7620   59.0550 O   0  0  0  0  0  0  0  0  0  0  0  0
    0.0880    0.1980   50.9520 F   0  0  0  0  0  0  0  0  0  0  0  0
  1  4  2  0
  1  8  1  0
  2  5  2  0
  2  9  1  0
  3  6  1  0
  3  9  2  0
  4 11  1  0
  5 10  1  0
  6 10  2  0
  7 11  2  0
  7 12  1  0
  8 12  2  0
  8 19  1  0
  9 23  1  0
 10 24  1  0
 11 25  1  0
 12 30  1  0
 13 21  1  0
 13 24  1  0
 13 27  2  0
 14 22  1  0
 14 25  1  0
 14 28  2  0
 15 17  1  0
 15 23  1  0
 16 18  1  0
 16 23  1  0
 17 29  1  0
 18 29  1  0
 20 26  1  0
 21 26  1  0
 22 26  1  0
M  END
>  <washed_aromatic_smiles>  (385) 
Cc1ccc(cc1F)NC(=O)CN(C)CC(=O)Nc2ccc(cc2)N3CCOCC3

>  <name>  (385) 
neg184769

$$$$
neg68202
     RDKit          3D

 25 27  0  0  0  0  0  0  0  0999 V2000
    1.9690    4.4090   48.9550 C   0  0  0  0  0  0  0  0  0  0  0  0
    1.3380    3.7530   47.9140 C   0  0  0  0  0  0  0  0  0  0  0  0
    1.9500    2.3780   50.1930 C   0  0  0  0  0  0  0  0  0  0  0  0
    2.2060    3.7350   50.1450 C   0  0  0  0  0  0  0  0  0  0  0  0
    0.9650    2.4110   48.0080 C   0  0  0  0  0  0  0  0  0  0  0  0
    1.2480    1.7220   49.1880 C   0  0  0  0  0  0  0  0  0  0  0  0
    2.5630    4.4100   51.3850 C   0  0  0  0  0  0  0  0  0  0  0  0
    2.4940   -0.4260   53.7800 C   0  0  0  0  0  0  0  0  0  0  0  0
    2.5770   -1.4160   52.6250 C   0  0  0  0  0  0  0  0  0  0  0  0
    1.5580    0.7060   53.3810 C   0  0  0  0  0  0  0  0  0  0  0  0
    0.1960    6.7670   52.5580 C   0  0  0  0  0  0  0  0  0  0  0  0
    2.4670    7.4210   53.3510 C   0  0  0  0  0  0  0  0  0  0  0  0
    2.5010   -0.7780   51.2430 C   0  0  0  0  0  0  0  0  0  0  0  0
    0.5690    0.3900   52.2270 C   0  0  0  0  0  0  0  0  0  0  0  0
    0.7730    5.9670   51.4120 C   0  0  0  0  0  0  0  0  0  0  0  0
    3.0500    6.6840   52.1530 C   0  0  0  0  0  0  0  0  0  0  0  0
    1.0570    7.9260   53.0630 C   0  0  0  0  0  0  0  0  0  0  0  0
    0.2620    1.7220   46.8490 C   0  0  0  0  0  0  0  0  0  0  0  0
    0.4690    8.4700   54.3520 C   0  0  0  0  0  0  0  0  0  0  0  0
    2.1840    5.7030   51.5360 N   0  0  0  0  0  0  0  0  0  0  0  0
    1.1620   -0.2620   51.0400 N   0  0  0  0  0  0  0  0  0  0  0  0
    3.0000    3.8350   52.3700 O   0  0  0  0  0  0  0  0  0  0  0  0
   -0.8230    0.1980   49.5960 O   0  0  0  0  0  0  0  0  0  0  0  0
    1.1010   -0.8360   48.5750 O   0  0  0  0  0  0  0  0  0  0  0  0
    0.5900    0.0880   49.5290 S   0  0  0  0  0  0  0  0  0  0  0  0
  1  2  2  0
  1  4  1  0
  2  5  1  0
  3  4  2  0
  3  6  1  0
  4  7  1  0
  5  6  2  0
  5 18  1  0
  6 25  1  0
  7 20  1  0
  7 22  2  0
  8  9  1  0
  8 10  1  0
  9 13  1  0
 10 14  1  0
 11 15  1  0
 11 17  1  0
 12 16  1  0
 12 17  1  0
 13 21  1  0
 14 21  1  0
 15 20  1  0
 16 20  1  0
 17 19  1  0
 21 25  1  0
 23 25  2  0
 24 25  2  0
M  END
>  <washed_aromatic_smiles>  (386) 
Cc1ccc(cc1S(=O)(=O)N2CCCCC2)C(=O)N3CCC(CC3)C

>  <name>  (386) 
neg68202

$$$$
neg25311
     RDKit          3D

 29 31  0  0  0  0  0  0  0  0999 V2000
    0.9180   -0.3490   48.9690 C   0  0  0  0  0  0  0  0  0  0  0  0
    1.4850   -0.2550   50.2390 C   0  0  0  0  0  0  0  0  0  0  0  0
    0.6990    0.8010   48.2140 C   0  0  0  0  0  0  0  0  0  0  0  0
    2.7410    7.4970   54.2470 C   0  0  0  0  0  0  0  0  0  0  0  0
    3.9860    7.7360   54.7670 C   0  0  0  0  0  0  0  0  0  0  0  0
    1.8050    0.9870   50.7720 C   0  0  0  0  0  0  0  0  0  0  0  0
    1.0200    2.0490   48.7330 C   0  0  0  0  0  0  0  0  0  0  0  0
    2.9080    9.4840   52.9390 C   0  0  0  0  0  0  0  0  0  0  0  0
    2.2860    8.2590   53.1920 C   0  0  0  0  0  0  0  0  0  0  0  0
    4.7900    8.7100   54.1970 C   0  0  0  0  0  0  0  0  0  0  0  0
    1.5510    2.1410   50.0280 C   0  0  0  0  0  0  0  0  0  0  0  0
    4.1790    9.7400   53.4680 C   0  0  0  0  0  0  0  0  0  0  0  0
    1.2660    7.6490   52.3810 C   0  0  0  0  0  0  0  0  0  0  0  0
    1.6120    4.6350   50.1330 C   0  0  0  0  0  0  0  0  0  0  0  0
    5.2770   12.2170   58.0720 C   0  0  0  0  0  0  0  0  0  0  0  0
    5.6730   13.2800   57.0460 C   0  0  0  0  0  0  0  0  0  0  0  0
    4.1870   11.3140   57.5220 C   0  0  0  0  0  0  0  0  0  0  0  0
    5.9310   12.7470   55.6280 C   0  0  0  0  0  0  0  0  0  0  0  0
    4.5910   10.7630   56.1760 C   0  0  0  0  0  0  0  0  0  0  0  0
    6.2660    8.6120   54.4650 C   0  0  0  0  0  0  0  0  0  0  0  0
    0.8870    5.6590   50.9900 C   0  0  0  0  0  0  0  0  0  0  0  0
    4.9660   11.7670   55.1470 N   0  0  0  0  0  0  0  0  0  0  0  0
    1.7380    3.3850   50.6900 N   0  0  0  0  0  0  0  0  0  0  0  0
    0.0800    7.9190   52.4150 O   0  0  0  0  0  0  0  0  0  0  0  0
    1.9990    4.8460   48.9990 O   0  0  0  0  0  0  0  0  0  0  0  0
    6.2700   11.3190   52.9900 O   0  0  0  0  0  0  0  0  0  0  0  0
    4.1090   12.3320   52.8470 O   0  0  0  0  0  0  0  0  0  0  0  0
    1.7340    6.6100   51.6420 O   0  0  0  0  0  0  0  0  0  0  0  0
    4.9420   11.3930   53.5020 S   0  0  0  0  0  0  0  0  0  0  0  0
  1  2  2  0
  1  3  1  0
  2  6  1  0
  3  7  2  0
  4  5  2  0
  4  9  1  0
  5 10  1  0
  6 11  2  0
  7 11  1  0
  8  9  2  0
  8 12  1  0
  9 13  1  0
 10 12  2  0
 10 20  1  0
 11 23  1  0
 12 29  1  0
 13 24  2  0
 13 28  1  0
 14 21  1  0
 14 23  1  0
 14 25  2  0
 15 16  1  0
 15 17  1  0
 16 18  1  0
 17 19  1  0
 18 22  1  0
 19 22  1  0
 21 28  1  0
 22 29  1  0
 26 29  2  0
 27 29  2  0
M  END
>  <washed_aromatic_smiles>  (387) 
Cc1ccc(cc1S(=O)(=O)N2CCCCC2)C(=O)OCC(=O)Nc3ccccc3

>  <name>  (387) 
neg25311

$$$$
neg20719
     RDKit          3D

 26 28  0  0  0  0  0  0  0  0999 V2000
    1.3910    3.8370   47.9710 C   0  0  0  0  0  0  0  0  0  0  0  0
    1.9920    4.6020   48.9430 C   0  0  0  0  0  0  0  0  0  0  0  0
    1.8030    2.7600   50.4670 C   0  0  0  0  0  0  0  0  0  0  0  0
    3.1630    8.5060   52.4300 C   0  0  0  0  0  0  0  0  0  0  0  0
    3.4970    7.3640   54.7670 C   0  0  0  0  0  0  0  0  0  0  0  0
    0.9770    2.5350   48.1980 C   0  0  0  0  0  0  0  0  0  0  0  0
    2.1460    4.0980   50.2330 C   0  0  0  0  0  0  0  0  0  0  0  0
    1.1780    1.9820   49.4650 C   0  0  0  0  0  0  0  0  0  0  0  0
    3.1050    7.1080   52.5360 C   0  0  0  0  0  0  0  0  0  0  0  0
    3.5210    8.7470   54.6440 C   0  0  0  0  0  0  0  0  0  0  0  0
    2.9770    6.2840   51.3160 C   0  0  0  0  0  0  0  0  0  0  0  0
    2.8070   -0.3590   53.6670 C   0  0  0  0  0  0  0  0  0  0  0  0
    1.3920    0.1800   53.7660 C   0  0  0  0  0  0  0  0  0  0  0  0
    2.6870   -1.3820   52.5560 C   0  0  0  0  0  0  0  0  0  0  0  0
    0.6280    0.4050   52.4340 C   0  0  0  0  0  0  0  0  0  0  0  0
    2.5280   -0.6720   51.2360 C   0  0  0  0  0  0  0  0  0  0  0  0
    0.3080    1.7840   47.0490 C   0  0  0  0  0  0  0  0  0  0  0  0
    3.7520    9.6280   55.8520 C   0  0  0  0  0  0  0  0  0  0  0  0
    3.2800    6.5530   53.7360 N   0  0  0  0  0  0  0  0  0  0  0  0
    3.3530    9.3150   53.4640 N   0  0  0  0  0  0  0  0  0  0  0  0
    1.2040   -0.1170   51.1910 N   0  0  0  0  0  0  0  0  0  0  0  0
    2.5640    4.9350   51.3530 N   0  0  0  0  0  0  0  0  0  0  0  0
    3.2850    6.7620   50.2350 O   0  0  0  0  0  0  0  0  0  0  0  0
   -0.8670    0.4140   49.9460 O   0  0  0  0  0  0  0  0  0  0  0  0
    0.9910   -0.5500   48.7360 O   0  0  0  0  0  0  0  0  0  0  0  0
    0.5400    0.3240   49.7690 S   0  0  0  0  0  0  0  0  0  0  0  0
  1  2  2  0
  1  6  1  0
  2  7  1  0
  3  7  2  0
  3  8  1  0
  4  9  2  0
  4 20  1  0
  5 10  1  0
  5 19  2  0
  6  8  2  0
  6 17  1  0
  7 22  1  0
  8 26  1  0
  9 11  1  0
  9 19  1  0
 10 18  1  0
 10 20  2  0
 11 22  1  0
 11 23  2  0
 12 13  1  0
 12 14  1  0
 13 15  1  0
 14 16  1  0
 15 21  1  0
 16 21  1  0
 21 26  1  0
 24 26  2  0
 25 26  2  0
M  END
>  <washed_aromatic_smiles>  (388) 
Cc1ccc(cc1S(=O)(=O)N2CCCCC2)NC(=O)c3cnc(cn3)C

>  <name>  (388) 
neg20719

$$$$
neg55433
     RDKit          3D

 26 28  0  0  0  0  0  0  0  0999 V2000
    0.6040    8.4380   53.9280 C   0  0  0  0  0  0  0  0  0  0  0  0
    2.3150    4.5690   48.7170 C   0  0  0  0  0  0  0  0  0  0  0  0
    1.8910    3.6090   47.7990 C   0  0  0  0  0  0  0  0  0  0  0  0
    0.7270    7.7770   52.7200 C   0  0  0  0  0  0  0  0  0  0  0  0
    1.6170    3.0960   50.4290 C   0  0  0  0  0  0  0  0  0  0  0  0
    1.7120    8.5580   54.7670 C   0  0  0  0  0  0  0  0  0  0  0  0
    3.0400    7.3950   53.2980 C   0  0  0  0  0  0  0  0  0  0  0  0
    2.1520    4.3210   50.0750 C   0  0  0  0  0  0  0  0  0  0  0  0
    1.2730    2.4210   48.1700 C   0  0  0  0  0  0  0  0  0  0  0  0
    1.9700    7.2450   52.4060 C   0  0  0  0  0  0  0  0  0  0  0  0
    1.2000    2.1360   49.5230 C   0  0  0  0  0  0  0  0  0  0  0  0
    2.5120    5.2080   51.1800 C   0  0  0  0  0  0  0  0  0  0  0  0
    3.4730    0.8020   53.9690 C   0  0  0  0  0  0  0  0  0  0  0  0
    2.1480    0.6580   54.5700 C   0  0  0  0  0  0  0  0  0  0  0  0
    3.6270    1.4190   52.5850 C   0  0  0  0  0  0  0  0  0  0  0  0
    1.5790   -0.5900   53.9770 C   0  0  0  0  0  0  0  0  0  0  0  0
    3.0370    0.5470   51.4820 C   0  0  0  0  0  0  0  0  0  0  0  0
    1.1820   -0.5320   52.5220 C   0  0  0  0  0  0  0  0  0  0  0  0
    0.6870    1.4860   47.1190 C   0  0  0  0  0  0  0  0  0  0  0  0
    2.9000    8.0440   54.4510 N   0  0  0  0  0  0  0  0  0  0  0  0
    1.5850    0.4760   51.5990 N   0  0  0  0  0  0  0  0  0  0  0  0
    2.1010    6.5150   51.1930 N   0  0  0  0  0  0  0  0  0  0  0  0
    3.0560    4.7850   52.1880 O   0  0  0  0  0  0  0  0  0  0  0  0
   -0.7120    0.6970   50.5560 O   0  0  0  0  0  0  0  0  0  0  0  0
    1.0150   -0.4840   49.3420 O   0  0  0  0  0  0  0  0  0  0  0  0
    0.6670    0.5840   50.2190 S   0  0  0  0  0  0  0  0  0  0  0  0
  1  4  2  0
  1  6  1  0
  2  3  2  0
  2  8  1  0
  3  9  1  0
  4 10  1  0
  5  8  2  0
  5 11  1  0
  6 20  2  0
  7 10  2  0
  7 20  1  0
  8 12  1  0
  9 11  2  0
  9 19  1  0
 10 22  1  0
 11 26  1  0
 12 22  1  0
 12 23  2  0
 13 14  1  0
 13 15  1  0
 14 16  1  0
 15 17  1  0
 16 18  1  0
 17 21  1  0
 18 21  1  0
 21 26  1  0
 24 26  2  0
 25 26  2  0
M  END
>  <washed_aromatic_smiles>  (389) 
Cc1ccc(cc1S(=O)(=O)N2CCCCCC2)C(=O)Nc3cccnc3

>  <name>  (389) 
neg55433

$$$$
neg289750
     RDKit          3D

 26 28  0  0  0  0  0  0  0  0999 V2000
    2.4170    3.9440   48.3110 C   0  0  0  0  0  0  0  0  0  0  0  0
    1.8100    3.0620   47.4620 C   0  0  0  0  0  0  0  0  0  0  0  0
    1.6700    2.5740   50.1170 C   0  0  0  0  0  0  0  0  0  0  0  0
    2.2800    3.7470   49.6600 C   0  0  0  0  0  0  0  0  0  0  0  0
    1.0670    1.9800   47.8710 C   0  0  0  0  0  0  0  0  0  0  0  0
    1.0510    1.6790   49.2240 C   0  0  0  0  0  0  0  0  0  0  0  0
    1.1540    7.6920   53.9330 C   0  0  0  0  0  0  0  0  0  0  0  0
    1.7660    6.2940   52.2260 C   0  0  0  0  0  0  0  0  0  0  0  0
    2.6800    4.8350   50.5060 C   0  0  0  0  0  0  0  0  0  0  0  0
    3.1550   -0.4400   53.4570 C   0  0  0  0  0  0  0  0  0  0  0  0
    2.4470    0.7290   54.0490 C   0  0  0  0  0  0  0  0  0  0  0  0
    3.3860   -0.1480   51.9620 C   0  0  0  0  0  0  0  0  0  0  0  0
    1.0410    0.3650   53.7350 C   0  0  0  0  0  0  0  0  0  0  0  0
    2.3030   -0.8610   51.1890 C   0  0  0  0  0  0  0  0  0  0  0  0
    0.4430    0.4580   52.3310 C   0  0  0  0  0  0  0  0  0  0  0  0
    0.3780    1.1560   46.7930 C   0  0  0  0  0  0  0  0  0  0  0  0
    0.3840    8.4540   54.9510 C   0  0  0  0  0  0  0  0  0  0  0  0
    2.4280    7.4490   53.9560 N   0  0  0  0  0  0  0  0  0  0  0  0
    2.8090    6.6220   52.9310 N   0  0  0  0  0  0  0  0  0  0  0  0
    1.0290   -0.1760   51.1610 N   0  0  0  0  0  0  0  0  0  0  0  0
    1.6620    5.3310   51.2440 N   0  0  0  0  0  0  0  0  0  0  0  0
    3.7650    5.3930   50.4660 O   0  0  0  0  0  0  0  0  0  0  0  0
   -1.0740    0.3390   49.9500 O   0  0  0  0  0  0  0  0  0  0  0  0
    0.6650   -0.8850   48.7960 O   0  0  0  0  0  0  0  0  0  0  0  0
    0.3020    7.0230   52.6270 S   0  0  0  0  0  0  0  0  0  0  0  0
    0.3130    0.1310   49.7310 S   0  0  0  0  0  0  0  0  0  0  0  0
  1  2  2  0
  1  4  1  0
  2  5  1  0
  3  4  2  0
  3  6  1  0
  4  9  1  0
  5  6  2  0
  5 16  1  0
  6 26  1  0
  7 17  1  0
  7 18  2  0
  7 25  1  0
  8 19  2  0
  8 21  1  0
  8 25  1  0
  9 21  1  0
  9 22  2  0
 10 11  1  0
 10 12  1  0
 11 13  1  0
 12 14  1  0
 13 15  1  0
 14 20  1  0
 15 20  1  0
 18 19  1  0
 20 26  1  0
 23 26  2  0
 24 26  2  0
M  END
>  <washed_aromatic_smiles>  (390) 
Cc1ccc(cc1S(=O)(=O)N2CCCCCC2)C(=O)Nc3nnc(s3)C

>  <name>  (390) 
neg289750

$$$$
neg17329
     RDKit          3D

 25 27  0  0  0  0  0  0  0  0999 V2000
    3.4930    6.6520   53.2160 C   0  0  0  0  0  0  0  0  0  0  0  0
    1.7130    8.0580   52.4460 C   0  0  0  0  0  0  0  0  0  0  0  0
    2.6610    1.3500   51.8330 C   0  0  0  0  0  0  0  0  0  0  0  0
    4.1650    7.7730   53.6890 C   0  0  0  0  0  0  0  0  0  0  0  0
    2.4320    9.1790   52.8340 C   0  0  0  0  0  0  0  0  0  0  0  0
    2.8170    2.7140   51.9360 C   0  0  0  0  0  0  0  0  0  0  0  0
    1.6910    1.7240   49.6660 C   0  0  0  0  0  0  0  0  0  0  0  0
    2.2980    6.7980   52.5120 C   0  0  0  0  0  0  0  0  0  0  0  0
    2.0750    0.8440   50.6820 C   0  0  0  0  0  0  0  0  0  0  0  0
    3.6840    9.0480   53.4300 C   0  0  0  0  0  0  0  0  0  0  0  0
    2.3970    3.5300   50.8870 C   0  0  0  0  0  0  0  0  0  0  0  0
    1.7100    5.6790   51.7960 C   0  0  0  0  0  0  0  0  0  0  0  0
    4.3630   10.2990   58.4010 C   0  0  0  0  0  0  0  0  0  0  0  0
    3.5990    9.3680   57.4510 C   0  0  0  0  0  0  0  0  0  0  0  0
    5.4620   11.0140   57.6400 C   0  0  0  0  0  0  0  0  0  0  0  0
    3.1920   10.1020   56.1880 C   0  0  0  0  0  0  0  0  0  0  0  0
    5.0330   11.6490   56.3180 C   0  0  0  0  0  0  0  0  0  0  0  0
    1.8700   -0.6450   50.5840 C   0  0  0  0  0  0  0  0  0  0  0  0
    1.8530    3.0480   49.7650 N   0  0  0  0  0  0  0  0  0  0  0  0
    4.3790   10.6390   55.5140 N   0  0  0  0  0  0  0  0  0  0  0  0
    2.5660    4.9090   51.0320 N   0  0  0  0  0  0  0  0  0  0  0  0
    0.5210    5.4080   51.8330 O   0  0  0  0  0  0  0  0  0  0  0  0
    6.0750   10.0970   53.7320 O   0  0  0  0  0  0  0  0  0  0  0  0
    4.2750   11.6090   53.1830 O   0  0  0  0  0  0  0  0  0  0  0  0
    4.7030   10.4520   53.8950 S   0  0  0  0  0  0  0  0  0  0  0  0
  1  4  2  0
  1  8  1  0
  2  5  1  0
  2  8  2  0
  3  6  2  0
  3  9  1  0
  4 10  1  0
  5 10  2  0
  6 11  1  0
  7  9  2  0
  7 19  1  0
  8 12  1  0
  9 18  1  0
 10 25  1  0
 11 19  2  0
 11 21  1  0
 12 21  1  0
 12 22  2  0
 13 14  1  0
 13 15  1  0
 14 16  1  0
 15 17  1  0
 16 20  1  0
 17 20  1  0
 20 25  1  0
 23 25  2  0
 24 25  2  0
M  END
>  <washed_aromatic_smiles>  (391) 
Cc1ccc(nc1)NC(=O)c2ccc(cc2)S(=O)(=O)N3CCCCC3

>  <name>  (391) 
neg17329

$$$$
neg28062
     RDKit          3D

 26 28  0  0  0  0  0  0  0  0999 V2000
    1.7470    7.7800   52.7770 C   0  0  0  0  0  0  0  0  0  0  0  0
    3.4020    6.3270   53.6720 C   0  0  0  0  0  0  0  0  0  0  0  0
    2.9750    3.5520   47.5650 C   0  0  0  0  0  0  0  0  0  0  0  0
    1.8920    8.6100   53.8970 C   0  0  0  0  0  0  0  0  0  0  0  0
    3.4260    7.0690   54.8250 C   0  0  0  0  0  0  0  0  0  0  0  0
    3.2540    4.5580   48.4710 C   0  0  0  0  0  0  0  0  0  0  0  0
    0.8780    3.2980   48.6040 C   0  0  0  0  0  0  0  0  0  0  0  0
    2.5280    6.6250   52.6560 C   0  0  0  0  0  0  0  0  0  0  0  0
    1.7070    2.9410   47.5850 C   0  0  0  0  0  0  0  0  0  0  0  0
    2.7770    8.2770   54.9320 C   0  0  0  0  0  0  0  0  0  0  0  0
    2.2760    4.9170   49.3780 C   0  0  0  0  0  0  0  0  0  0  0  0
    2.4680    5.5980   51.6390 C   0  0  0  0  0  0  0  0  0  0  0  0
    6.3960   10.4670   53.0130 C   0  0  0  0  0  0  0  0  0  0  0  0
    5.9350   11.8820   53.3670 C   0  0  0  0  0  0  0  0  0  0  0  0
    5.7740    9.2360   53.6960 C   0  0  0  0  0  0  0  0  0  0  0  0
    5.7000   12.1150   54.8530 C   0  0  0  0  0  0  0  0  0  0  0  0
    5.6620    9.1120   55.2240 C   0  0  0  0  0  0  0  0  0  0  0  0
    4.5180   11.2730   55.2920 C   0  0  0  0  0  0  0  0  0  0  0  0
    1.0220    1.8970   46.6810 C   0  0  0  0  0  0  0  0  0  0  0  0
    1.1250    4.2790   49.4570 N   0  0  0  0  0  0  0  0  0  0  0  0
    4.6900    9.9750   55.9020 N   0  0  0  0  0  0  0  0  0  0  0  0
    2.4930    5.9170   50.3170 N   0  0  0  0  0  0  0  0  0  0  0  0
    2.5050    4.4050   51.9370 O   0  0  0  0  0  0  0  0  0  0  0  0
    2.3170   10.1670   56.7440 O   0  0  0  0  0  0  0  0  0  0  0  0
    3.6690    8.2940   57.4170 O   0  0  0  0  0  0  0  0  0  0  0  0
    3.3040    9.2150   56.4000 S   0  0  0  0  0  0  0  0  0  0  0  0
  1  4  2  0
  1  8  1  0
  2  5  1  0
  2  8  2  0
  3  6  2  0
  3  9  1  0
  4 10  1  0
  5 10  2  0
  6 11  1  0
  7  9  2  0
  7 20  1  0
  8 12  1  0
  9 19  1  0
 10 26  1  0
 11 20  2  0
 11 22  1  0
 12 22  1  0
 12 23  2  0
 13 14  1  0
 13 15  1  0
 14 16  1  0
 15 17  1  0
 16 18  1  0
 17 21  1  0
 18 21  1  0
 21 26  1  0
 24 26  2  0
 25 26  2  0
M  END
>  <washed_aromatic_smiles>  (392) 
Cc1ccc(nc1)NC(=O)c2ccc(cc2)S(=O)(=O)N3CCCCCC3

>  <name>  (392) 
neg28062

$$$$
neg13659
     RDKit          3D

 26 28  0  0  0  0  0  0  0  0999 V2000
    3.0230    5.8830   50.2470 C   0  0  0  0  0  0  0  0  0  0  0  0
    1.9500    5.5710   51.0640 C   0  0  0  0  0  0  0  0  0  0  0  0
    3.4540    4.9650   49.3000 C   0  0  0  0  0  0  0  0  0  0  0  0
    3.2050   -1.0130   51.7940 C   0  0  0  0  0  0  0  0  0  0  0  0
    1.2990    4.3560   50.9200 C   0  0  0  0  0  0  0  0  0  0  0  0
    2.8200    3.7390   49.1580 C   0  0  0  0  0  0  0  0  0  0  0  0
    2.9850   -1.2710   53.1360 C   0  0  0  0  0  0  0  0  0  0  0  0
    2.3380   -0.2240   51.1050 C   0  0  0  0  0  0  0  0  0  0  0  0
    4.8210    1.7240   57.4280 C   0  0  0  0  0  0  0  0  0  0  0  0
    5.7130    1.0800   58.2810 C   0  0  0  0  0  0  0  0  0  0  0  0
    1.3240    0.4210   53.1880 C   0  0  0  0  0  0  0  0  0  0  0  0
    1.7210    3.4200   49.9650 C   0  0  0  0  0  0  0  0  0  0  0  0
    2.2320   -0.3820   53.8510 C   0  0  0  0  0  0  0  0  0  0  0  0
    1.3420    0.4060   51.7950 C   0  0  0  0  0  0  0  0  0  0  0  0
    4.2090    0.7630   56.6850 C   0  0  0  0  0  0  0  0  0  0  0  0
    5.6330   -0.2480   58.0200 C   0  0  0  0  0  0  0  0  0  0  0  0
    3.1580    0.8800   55.6930 C   0  0  0  0  0  0  0  0  0  0  0  0
    6.3640   -1.4150   58.6360 C   0  0  0  0  0  0  0  0  0  0  0  0
    0.9280    1.7410   48.3210 C   0  0  0  0  0  0  0  0  0  0  0  0
    2.6080   -0.2810   55.1890 N   0  0  0  0  0  0  0  0  0  0  0  0
    1.0320    2.1750   49.7330 N   0  0  0  0  0  0  0  0  0  0  0  0
    2.7190    1.9480   55.3000 O   0  0  0  0  0  0  0  0  0  0  0  0
   -0.5120    0.1560   50.0420 O   0  0  0  0  0  0  0  0  0  0  0  0
   -0.6640    1.8430   51.7350 O   0  0  0  0  0  0  0  0  0  0  0  0
    4.7300   -0.4550   57.0360 O   0  0  0  0  0  0  0  0  0  0  0  0
    0.1390    1.1550   50.8090 S   0  0  0  0  0  0  0  0  0  0  0  0
  1  2  2  0
  1  3  1  0
  2  5  1  0
  3  6  2  0
  4  7  2  0
  4  8  1  0
  5 12  2  0
  6 12  1  0
  7 13  1  0
  8 14  2  0
  9 10  1  0
  9 15  2  0
 10 16  2  0
 11 13  2  0
 11 14  1  0
 12 21  1  0
 13 20  1  0
 14 26  1  0
 15 17  1  0
 15 25  1  0
 16 18  1  0
 16 25  1  0
 17 20  1  0
 17 22  2  0
 19 21  1  0
 21 26  1  0
 23 26  2  0
 24 26  2  0
M  END
>  <washed_aromatic_smiles>  (393) 
Cc1ccc(o1)C(=O)Nc2cccc(c2)S(=O)(=O)N(C)c3ccccc3

>  <name>  (393) 
neg13659

$$$$
neg83168
     RDKit          3D

 25 27  0  0  0  0  0  0  0  0999 V2000
    4.4490   -0.6970   56.1130 C   0  0  0  0  0  0  0  0  0  0  0  0
    3.5270   -0.6420   55.0720 C   0  0  0  0  0  0  0  0  0  0  0  0
    2.4300    8.1790   52.4370 C   0  0  0  0  0  0  0  0  0  0  0  0
    3.1040    7.8150   51.3040 C   0  0  0  0  0  0  0  0  0  0  0  0
    1.2640    6.0600   52.3980 C   0  0  0  0  0  0  0  0  0  0  0  0
    4.6120    0.4070   56.9390 C   0  0  0  0  0  0  0  0  0  0  0  0
    2.9990    1.5680   55.7790 C   0  0  0  0  0  0  0  0  0  0  0  0
    2.0960    5.5970   51.3510 C   0  0  0  0  0  0  0  0  0  0  0  0
    1.4700    7.3160   52.9670 C   0  0  0  0  0  0  0  0  0  0  0  0
    2.7910    0.5140   54.8920 C   0  0  0  0  0  0  0  0  0  0  0  0
    2.2810    4.3970   50.6010 C   0  0  0  0  0  0  0  0  0  0  0  0
    2.9120    6.5430   50.7620 C   0  0  0  0  0  0  0  0  0  0  0  0
    2.9960    4.7050   49.4860 C   0  0  0  0  0  0  0  0  0  0  0  0
    2.3020    0.0960   51.4640 C   0  0  0  0  0  0  0  0  0  0  0  0
    0.6630    7.8780   54.1020 C   0  0  0  0  0  0  0  0  0  0  0  0
    3.3000    3.8750   48.2590 C   0  0  0  0  0  0  0  0  0  0  0  0
    0.9620   -0.4580   49.4850 C   0  0  0  0  0  0  0  0  0  0  0  0
    1.8840    2.9780   50.9340 C   0  0  0  0  0  0  0  0  0  0  0  0
    1.7520    0.5700   53.7860 C   0  0  0  0  0  0  0  0  0  0  0  0
    2.7360    2.3370   52.0650 C   0  0  0  0  0  0  0  0  0  0  0  0
    3.8880    1.5080   56.7710 N   0  0  0  0  0  0  0  0  0  0  0  0
    3.4080    6.0060   49.5950 N   0  0  0  0  0  0  0  0  0  0  0  0
    1.0620   -0.1950   50.9140 N   0  0  0  0  0  0  0  0  0  0  0  0
    2.2080    1.0270   52.4630 N   0  0  0  0  0  0  0  0  0  0  0  0
    3.7890   -0.4450   50.9280 S   0  0  0  0  0  0  0  0  0  0  0  0
  1  2  2  0
  1  6  1  0
  2 10  1  0
  3  4  2  0
  3  9  1  0
  4 12  1  0
  5  8  1  0
  5  9  2  0
  6 21  2  0
  7 10  2  0
  7 21  1  0
  8 11  1  0
  8 12  2  0
  9 15  1  0
 10 19  1  0
 11 13  2  0
 11 18  1  0
 12 22  1  0
 13 16  1  0
 13 22  1  0
 14 23  1  0
 14 24  1  0
 14 25  2  0
 17 23  1  0
 18 20  1  0
 19 24  1  0
 20 24  1  0
M  END
>  <washed_aromatic_smiles>  (394) 
Cc1ccc2c(c1)c(c([nH]2)C)CCN(Cc3cccnc3)C(=S)NC

>  <name>  (394) 
neg83168

$$$$
neg98184
     RDKit          3D

 26 29  0  0  0  0  0  0  0  0999 V2000
    3.1410    3.5810   48.2780 C   0  0  0  0  0  0  0  0  0  0  0  0
    3.3020    4.9300   48.5160 C   0  0  0  0  0  0  0  0  0  0  0  0
    2.3520    2.8150   49.1310 C   0  0  0  0  0  0  0  0  0  0  0  0
    2.6860    5.5270   49.5870 C   0  0  0  0  0  0  0  0  0  0  0  0
    1.6830    3.4300   50.1850 C   0  0  0  0  0  0  0  0  0  0  0  0
    5.5470   13.1610   56.9400 C   0  0  0  0  0  0  0  0  0  0  0  0
    5.5100   13.1890   55.5530 C   0  0  0  0  0  0  0  0  0  0  0  0
    4.8260   10.8570   56.9180 C   0  0  0  0  0  0  0  0  0  0  0  0
    4.7570   10.8840   55.5190 C   0  0  0  0  0  0  0  0  0  0  0  0
    1.8020    4.8060   50.3760 C   0  0  0  0  0  0  0  0  0  0  0  0
    5.2590   11.9730   57.6200 C   0  0  0  0  0  0  0  0  0  0  0  0
    5.2350   12.0230   54.8670 C   0  0  0  0  0  0  0  0  0  0  0  0
    4.5190    9.8210   53.3860 C   0  0  0  0  0  0  0  0  0  0  0  0
    4.2070    9.8270   54.7110 C   0  0  0  0  0  0  0  0  0  0  0  0
    5.3680   10.8420   52.8320 C   0  0  0  0  0  0  0  0  0  0  0  0
    0.7600    7.4730   52.9250 C   0  0  0  0  0  0  0  0  0  0  0  0
    2.9240    6.2340   52.6570 C   0  0  0  0  0  0  0  0  0  0  0  0
    1.5020    8.5220   53.7420 C   0  0  0  0  0  0  0  0  0  0  0  0
    3.4020    6.9170   53.9430 C   0  0  0  0  0  0  0  0  0  0  0  0
    5.3920   11.8850   59.1150 C   0  0  0  0  0  0  0  0  0  0  0  0
    0.9520    5.5730   51.3560 C   0  0  0  0  0  0  0  0  0  0  0  0
    3.2800    8.8380   55.4140 C   0  0  0  0  0  0  0  0  0  0  0  0
    1.6490    6.7000   52.0220 N   0  0  0  0  0  0  0  0  0  0  0  0
    2.5240    7.8990   54.5880 N   0  0  0  0  0  0  0  0  0  0  0  0
    5.9920   10.7480   51.7910 O   0  0  0  0  0  0  0  0  0  0  0  0
    5.5140   11.9860   53.5280 O   0  0  0  0  0  0  0  0  0  0  0  0
  1  2  2  0
  1  3  1  0
  2  4  1  0
  3  5  2  0
  4 10  2  0
  5 10  1  0
  6  7  2  0
  6 11  1  0
  7 12  1  0
  8  9  1  0
  8 11  2  0
  9 12  2  0
  9 14  1  0
 10 21  1  0
 11 20  1  0
 12 26  1  0
 13 14  2  0
 13 15  1  0
 14 22  1  0
 15 25  2  0
 15 26  1  0
 16 18  1  0
 16 23  1  0
 17 19  1  0
 17 23  1  0
 18 24  1  0
 19 24  1  0
 21 23  1  0
 22 24  1  0
M  CHG  1  23   1
M  END
>  <washed_aromatic_smiles>  (395) 
Cc1ccc2c(c1)c(cc(=O)o2)CN3CCN(CC3)Cc4ccccc4

>  <name>  (395) 
neg98184

$$$$
neg275416
     RDKit          3D

 27 30  0  0  0  0  0  0  0  0999 V2000
    1.7360    4.7840   48.9870 C   0  0  0  0  0  0  0  0  0  0  0  0
    5.7570   12.4490   57.1040 C   0  0  0  0  0  0  0  0  0  0  0  0
    4.0950    7.6220   56.7330 C   0  0  0  0  0  0  0  0  0  0  0  0
    3.6970    7.1670   55.4820 C   0  0  0  0  0  0  0  0  0  0  0  0
    1.4830    5.3960   50.2280 C   0  0  0  0  0  0  0  0  0  0  0  0
    5.6840   11.5420   56.0400 C   0  0  0  0  0  0  0  0  0  0  0  0
    3.5430    9.8630   56.0610 C   0  0  0  0  0  0  0  0  0  0  0  0
    3.0280    4.9260   48.5900 C   0  0  0  0  0  0  0  0  0  0  0  0
    5.3520   13.6880   56.7460 C   0  0  0  0  0  0  0  0  0  0  0  0
    4.0160    8.9820   57.0330 C   0  0  0  0  0  0  0  0  0  0  0  0
    3.3920    8.0660   54.4990 C   0  0  0  0  0  0  0  0  0  0  0  0
    3.4870    9.4000   54.7460 C   0  0  0  0  0  0  0  0  0  0  0  0
    2.5750    6.0070   50.7880 C   0  0  0  0  0  0  0  0  0  0  0  0
    5.1840   12.0620   54.8860 C   0  0  0  0  0  0  0  0  0  0  0  0
    3.4950    8.9720   52.5390 C   0  0  0  0  0  0  0  0  0  0  0  0
    4.5880    9.4840   58.3390 C   0  0  0  0  0  0  0  0  0  0  0  0
    3.1690    7.8360   53.1600 N   0  0  0  0  0  0  0  0  0  0  0  0
    3.7270    9.9880   53.5060 N   0  0  0  0  0  0  0  0  0  0  0  0
    3.6630    8.9330   51.3520 O   0  0  0  0  0  0  0  0  0  0  0  0
    1.2940    6.2140   52.9820 O   0  0  0  0  0  0  0  0  0  0  0  0
    3.5650    5.3620   53.0230 O   0  0  0  0  0  0  0  0  0  0  0  0
    4.2320   12.3280   52.5430 O   0  0  0  0  0  0  0  0  0  0  0  0
    6.0650   10.7920   52.7810 O   0  0  0  0  0  0  0  0  0  0  0  0
    3.9320    5.8430   49.7270 S   0  0  0  0  0  0  0  0  0  0  0  0
    4.8390   13.7340   55.1020 S   0  0  0  0  0  0  0  0  0  0  0  0
    2.6390    6.3250   52.5560 S   0  0  0  0  0  0  0  0  0  0  0  0
    4.8430   11.3020   53.2920 S   0  0  0  0  0  0  0  0  0  0  0  0
  1  5  1  0
  1  8  2  0
  2  6  1  0
  2  9  2  0
  3  4  2  0
  3 10  1  0
  4 11  1  0
  5 13  2  0
  6 14  2  0
  7 10  2  0
  7 12  1  0
  8 24  1  0
  9 25  1  0
 10 16  1  0
 11 12  2  0
 11 17  1  0
 12 18  1  0
 13 24  1  0
 13 26  1  0
 14 25  1  0
 14 27  1  0
 15 17  1  0
 15 18  1  0
 15 19  2  0
 17 26  1  0
 18 27  1  0
 20 26  2  0
 21 26  2  0
 22 27  2  0
 23 27  2  0
M  END
>  <washed_aromatic_smiles>  (396) 
Cc1ccc2c(c1)n(c(=O)n2S(=O)(=O)c3cccs3)S(=O)(=O)c4cccs4

>  <name>  (396) 
neg275416

$$$$
neg236076
     RDKit          3D

 28 30  0  0  0  0  0  0  0  0999 V2000
    1.6190   -0.8610   50.2130 C   0  0  0  0  0  0  0  0  0  0  0  0
    2.2180    0.1600   50.9270 C   0  0  0  0  0  0  0  0  0  0  0  0
    0.9460   -0.5950   49.0230 C   0  0  0  0  0  0  0  0  0  0  0  0
    3.6080    6.4600   53.2730 C   0  0  0  0  0  0  0  0  0  0  0  0
    1.7810    7.6970   52.3170 C   0  0  0  0  0  0  0  0  0  0  0  0
    4.1950    7.6480   53.6830 C   0  0  0  0  0  0  0  0  0  0  0  0
    2.4060    8.8910   52.6900 C   0  0  0  0  0  0  0  0  0  0  0  0
    1.5540    1.7130   49.2070 C   0  0  0  0  0  0  0  0  0  0  0  0
    2.1750    1.4670   50.4450 C   0  0  0  0  0  0  0  0  0  0  0  0
    0.9220    0.6950   48.5070 C   0  0  0  0  0  0  0  0  0  0  0  0
    2.4260    6.4870   52.5570 C   0  0  0  0  0  0  0  0  0  0  0  0
    3.6470    8.8730   53.3370 C   0  0  0  0  0  0  0  0  0  0  0  0
    2.7370    2.5400   51.2530 C   0  0  0  0  0  0  0  0  0  0  0  0
    2.0080    4.7540   50.8650 C   0  0  0  0  0  0  0  0  0  0  0  0
    4.3350   10.3060   58.3220 C   0  0  0  0  0  0  0  0  0  0  0  0
    3.5800    9.3200   57.4210 C   0  0  0  0  0  0  0  0  0  0  0  0
    5.4520   10.9650   57.5360 C   0  0  0  0  0  0  0  0  0  0  0  0
    3.1950    9.9700   56.1050 C   0  0  0  0  0  0  0  0  0  0  0  0
    5.0380   11.5110   56.1690 C   0  0  0  0  0  0  0  0  0  0  0  0
    0.2410    0.9810   47.1860 C   0  0  0  0  0  0  0  0  0  0  0  0
    4.3940   10.4570   55.4100 N   0  0  0  0  0  0  0  0  0  0  0  0
    1.9410    5.2330   52.1610 N   0  0  0  0  0  0  0  0  0  0  0  0
    2.9300    3.7530   50.6460 N   0  0  0  0  0  0  0  0  0  0  0  0
    3.0060    2.4350   52.4420 O   0  0  0  0  0  0  0  0  0  0  0  0
    6.0010   10.0300   53.5220 O   0  0  0  0  0  0  0  0  0  0  0  0
    4.1120   11.4680   53.1090 O   0  0  0  0  0  0  0  0  0  0  0  0
    0.9450    5.1110   49.6510 S   0  0  0  0  0  0  0  0  0  0  0  0
    4.6240   10.3170   53.7690 S   0  0  0  0  0  0  0  0  0  0  0  0
  1  2  2  0
  1  3  1  0
  2  9  1  0
  3 10  2  0
  4  6  2  0
  4 11  1  0
  5  7  1  0
  5 11  2  0
  6 12  1  0
  7 12  2  0
  8  9  2  0
  8 10  1  0
  9 13  1  0
 10 20  1  0
 11 22  1  0
 12 28  1  0
 13 23  1  0
 13 24  2  0
 14 22  1  0
 14 23  1  0
 14 27  2  0
 15 16  1  0
 15 17  1  0
 16 18  1  0
 17 19  1  0
 18 21  1  0
 19 21  1  0
 21 28  1  0
 25 28  2  0
 26 28  2  0
M  END
>  <washed_aromatic_smiles>  (397) 
Cc1cccc(c1)C(=O)NC(=S)Nc2ccc(cc2)S(=O)(=O)N3CCCCC3

>  <name>  (397) 
neg236076

$$$$
neg124110
     RDKit          3D

 30 33  0  0  0  0  0  0  0  0999 V2000
    2.6190    4.2110   48.6220 C   0  0  0  0  0  0  0  0  0  0  0  0
   -2.4450   -0.3490   48.6770 C   0  0  0  0  0  0  0  0  0  0  0  0
    3.1690    5.4880   48.5720 C   0  0  0  0  0  0  0  0  0  0  0  0
   -1.8380    0.1250   47.5230 C   0  0  0  0  0  0  0  0  0  0  0  0
    2.2290    3.6900   49.8480 C   0  0  0  0  0  0  0  0  0  0  0  0
   -1.8600    0.0010   49.8600 C   0  0  0  0  0  0  0  0  0  0  0  0
    3.1710    6.2970   49.6950 C   0  0  0  0  0  0  0  0  0  0  0  0
   -0.5720    0.6710   47.5000 C   0  0  0  0  0  0  0  0  0  0  0  0
    2.4670    4.4320   51.0100 C   0  0  0  0  0  0  0  0  0  0  0  0
   -0.5620    0.4900   49.8890 C   0  0  0  0  0  0  0  0  0  0  0  0
    2.6590    5.8210   50.8850 C   0  0  0  0  0  0  0  0  0  0  0  0
    0.1150    0.5060   48.6640 C   0  0  0  0  0  0  0  0  0  0  0  0
    3.2300   -0.5350   52.8740 C   0  0  0  0  0  0  0  0  0  0  0  0
    2.8560    3.8150   52.2740 C   0  0  0  0  0  0  0  0  0  0  0  0
   -0.0840    0.9030   51.1820 C   0  0  0  0  0  0  0  0  0  0  0  0
    3.7500    1.6890   51.7780 C   0  0  0  0  0  0  0  0  0  0  0  0
    2.8580    1.7120   53.8710 C   0  0  0  0  0  0  0  0  0  0  0  0
    2.1740    0.0310   50.9210 C   0  0  0  0  0  0  0  0  0  0  0  0
    1.0340    0.1840   53.2310 C   0  0  0  0  0  0  0  0  0  0  0  0
    3.4890    0.2170   51.6140 C   0  0  2  0  0  0  0  0  0  0  0  0
    2.4220    0.2600   53.8210 C   0  0  1  0  0  0  0  0  0  0  0  0
    4.6780   -0.1950   50.7770 C   0  0  0  0  0  0  0  0  0  0  0  0
    2.6450   -0.3330   55.2000 C   0  0  0  0  0  0  0  0  0  0  0  0
    2.8550    2.4290   52.5620 N   0  0  0  0  0  0  0  0  0  0  0  0
    1.0150    0.3750   51.7500 N   0  0  0  0  0  0  0  0  0  0  0  0
    3.0470   -1.7220   52.8500 O   0  0  0  0  0  0  0  0  0  0  0  0
    3.4780    4.5300   53.0230 O   0  0  0  0  0  0  0  0  0  0  0  0
   -0.7300    1.6660   51.8590 O   0  0  0  0  0  0  0  0  0  0  0  0
    2.2250    7.1000   52.2450 Br  0  0  0  0  0  0  0  0  0  0  0  0
    1.0730   -1.0040   48.2550 Br  0  0  0  0  0  0  0  0  0  0  0  0
  1  3  2  0
  1  5  1  0
  2  4  2  0
  2  6  1  0
  3  7  1  0
  4  8  1  0
  5  9  2  0
  6 10  2  0
  7 11  2  0
  8 12  2  0
  9 11  1  0
  9 14  1  0
 10 12  1  0
 10 15  1  0
 11 29  1  0
 12 30  1  0
 13 20  1  0
 13 21  1  0
 13 26  2  0
 14 24  1  0
 14 27  2  0
 15 25  1  0
 15 28  2  0
 16 20  1  0
 16 24  1  0
 17 21  1  0
 17 24  1  0
 18 20  1  0
 18 25  1  0
 19 21  1  0
 19 25  1  0
 20 22  1  6
 21 23  1  1
M  END
>  <washed_aromatic_smiles>  (398) 
CC12CN(CC(C1=O)(CN(C2)C(=O)c3ccccc3Br)C)C(=O)c4ccccc4Br

>  <name>  (398) 
neg124110

$$$$
neg195150
     RDKit          3D

 26 31  0  0  1  0  0  0  0  0999 V2000
    2.5610    2.9140   51.6360 C   0  0  0  0  0  0  0  0  0  0  0  0
    2.7340    6.0800   52.8500 C   0  0  0  0  0  0  0  0  0  0  0  0
    1.4720   -0.7070   51.3670 C   0  0  0  0  0  0  0  0  0  0  0  0
    2.9070   -0.7890   50.9160 C   0  0  0  0  0  0  0  0  0  0  0  0
    0.4500    9.1290   52.6060 C   0  0  0  0  0  0  0  0  0  0  0  0
    1.8680    9.6540   52.5060 C   0  0  0  0  0  0  0  0  0  0  0  0
    1.7630    0.9560   53.0930 C   0  0  0  0  0  0  0  0  0  0  0  0
    3.9810    1.0330   51.9840 C   0  0  0  0  0  0  0  0  0  0  0  0
    0.4540    6.8070   52.1580 C   0  0  0  0  0  0  0  0  0  0  0  0
    2.8410    7.5740   51.1990 C   0  0  0  0  0  0  0  0  0  0  0  0
    0.6040    1.5930   50.9850 C   0  0  0  0  0  0  0  0  0  0  0  0
    2.7430    1.3490   49.7940 C   0  0  0  0  0  0  0  0  0  0  0  0
    1.3650    7.5930   54.2940 C   0  0  0  0  0  0  0  0  0  0  0  0
    3.6270    8.3920   53.3210 C   0  0  0  0  0  0  0  0  0  0  0  0
    2.9140    1.8660   52.6520 C   0  0  1  0  0  0  0  0  0  0  0  0
    1.8770    6.5550   51.7040 C   0  0  1  0  0  0  0  0  0  0  0  0
    1.8340    2.3540   50.4470 C   0  0  2  0  0  0  0  0  0  0  0  0
    2.8420    7.2410   53.9160 C   0  0  2  0  0  0  0  0  0  0  0  0
    1.4870    3.4030   49.3530 C   0  0  0  0  0  0  0  0  0  0  0  0
    3.6040    7.1030   55.2150 C   0  0  0  0  0  0  0  0  0  0  0  0
    2.7500    4.1440   51.7270 N   0  0  0  0  0  0  0  0  0  0  0  0
    3.2800    4.9340   52.7820 N   0  0  0  0  0  0  0  0  0  0  0  0
    0.8990    0.5080   51.9820 N   0  0  1  0  0  0  0  0  0  0  0  0
    3.5680    0.4720   50.6880 N   0  0  0  0  0  0  0  0  0  0  0  0
    0.3530    7.8140   53.2110 N   0  0  1  0  0  0  0  0  0  0  0  0
    3.0480    8.8030   52.0990 N   0  0  0  0  0  0  0  0  0  0  0  0
  1 15  1  0
  1 17  1  0
  1 21  2  0
  2 16  1  0
  2 18  1  0
  2 22  2  0
  3  4  1  0
 23  3  1  6
  4 24  1  0
  5  6  1  0
 25  5  1  6
  6 26  1  0
 15  7  1  6
  7 23  1  0
  8 15  1  0
  8 24  1  0
 16  9  1  1
  9 25  1  0
 10 16  1  0
 10 26  1  0
 11 17  1  0
 11 23  1  0
 12 17  1  0
 12 24  1  0
 13 18  1  0
 13 25  1  0
 14 18  1  0
 14 26  1  0
 17 19  1  6
 18 20  1  1
 21 22  1  0
M  CHG  2  23   1  25   1
M  END
>  <washed_aromatic_smiles>  (399) 
CC12/C(=N/N=C\3/C4(CN5CC3CN(C4)CC5)C)/C6CN(C1)CCN(C2)C6

>  <name>  (399) 
neg195150

$$$$
neg259926
     RDKit          3D

 25 26  0  0  0  0  0  0  0  0999 V2000
    0.8980    8.4130   54.7120 C   0  0  0  0  0  0  0  0  0  0  0  0
    2.0840    8.7750   55.3600 C   0  0  0  0  0  0  0  0  0  0  0  0
    0.9250    7.5620   53.6170 C   0  0  0  0  0  0  0  0  0  0  0  0
    3.3380    7.3600   53.8720 C   0  0  0  0  0  0  0  0  0  0  0  0
    3.3130    8.2700   54.9340 C   0  0  0  0  0  0  0  0  0  0  0  0
    2.1480    7.0330   53.2180 C   0  0  0  0  0  0  0  0  0  0  0  0
    4.8890   10.1310   54.7670 C   0  0  0  0  0  0  0  0  0  0  0  0
    4.7650    9.0040   56.9930 C   0  0  0  0  0  0  0  0  0  0  0  0
    4.8770   11.3410   55.3820 C   0  0  0  0  0  0  0  0  0  0  0  0
    4.8300   10.2730   57.5210 C   0  0  0  0  0  0  0  0  0  0  0  0
    5.1460   10.0300   53.3810 C   0  0  0  0  0  0  0  0  0  0  0  0
    4.8930    7.7670   57.7420 C   0  0  0  0  0  0  0  0  0  0  0  0
    4.6240    8.8300   55.4820 C   0  0  0  0  0  0  0  0  0  0  0  0
    5.0340   12.6950   54.7210 C   0  0  0  0  0  0  0  0  0  0  0  0
    4.9970   10.7340   58.9350 C   0  0  0  0  0  0  0  0  0  0  0  0
    6.5120   11.0540   51.8110 C   0  0  0  0  0  0  0  0  0  0  0  0
    5.4990    6.5680   59.8130 C   0  0  0  0  0  0  0  0  0  0  0  0
    4.7460   11.4040   56.7360 N   0  0  0  0  0  0  0  0  0  0  0  0
    2.1720    6.1170   52.0880 N   0  0  0  0  0  0  0  0  0  0  0  0
    1.1550    5.8810   51.4560 O   0  0  0  0  0  0  0  0  0  0  0  0
    4.3190    9.7060   52.5460 O   0  0  0  0  0  0  0  0  0  0  0  0
    4.7620    6.6610   57.2400 O   0  0  0  0  0  0  0  0  0  0  0  0
    3.1980    5.5350   51.7840 O   0  0  0  0  0  0  0  0  0  0  0  0
    6.3880   10.3670   53.0240 O   0  0  0  0  0  0  0  0  0  0  0  0
    5.2080    7.7800   59.0610 O   0  0  0  0  0  0  0  0  0  0  0  0
  1  2  2  0
  1  3  1  0
  2  5  1  0
  3  6  2  0
  4  5  2  0
  4  6  1  0
  5 13  1  0
  6 19  1  0
  7  9  2  0
  7 11  1  0
  7 13  1  0
  8 10  2  0
  8 12  1  0
  8 13  1  0
  9 14  1  0
  9 18  1  0
 10 15  1  0
 10 18  1  0
 11 21  2  0
 11 24  1  0
 12 22  2  0
 12 25  1  0
 16 24  1  0
 17 25  1  0
 19 20  1  0
 19 23  2  0
M  CHG  2  19   1  20  -1
M  END
>  <washed_aromatic_smiles>  (400) 
CC1=C(C(C(=C(N1)C)C(=O)OC)c2cccc(c2)[N+](=O)[O-])C(=O)OC

>  <name>  (400) 
neg259926

$$$$
neg301161
     RDKit          3D

 25 27  0  0  0  0  0  0  0  0999 V2000
    1.0610    3.3080   47.9450 C   0  0  0  0  0  0  0  0  0  0  0  0
    1.6070    4.5380   48.2590 C   0  0  0  0  0  0  0  0  0  0  0  0
    2.5750    3.6030   50.2490 C   0  0  0  0  0  0  0  0  0  0  0  0
    1.3130    2.2060   48.7550 C   0  0  0  0  0  0  0  0  0  0  0  0
    2.0210    2.3620   49.9550 C   0  0  0  0  0  0  0  0  0  0  0  0
    2.4210    4.6720   49.3730 C   0  0  0  0  0  0  0  0  0  0  0  0
    0.9830   -0.1320   49.2160 C   0  0  0  0  0  0  0  0  0  0  0  0
    1.7380    0.0010   50.4650 C   0  0  0  0  0  0  0  0  0  0  0  0
    4.0200    7.8310   53.6780 C   0  0  0  0  0  0  0  0  0  0  0  0
    1.6650    8.5240   53.5960 C   0  0  0  0  0  0  0  0  0  0  0  0
    3.6680    6.4370   53.1300 C   0  0  0  0  0  0  0  0  0  0  0  0
    1.2810    7.2290   52.8440 C   0  0  0  0  0  0  0  0  0  0  0  0
    2.8580    8.2870   54.5440 C   0  0  2  0  0  0  0  0  0  0  0  0
    2.4470    6.4370   52.1990 C   0  0  1  0  0  0  0  0  0  0  0  0
    3.3180    9.4620   55.4090 C   0  0  0  0  0  0  0  0  0  0  0  0
    0.4780    0.6800   46.9500 C   0  0  0  0  0  0  0  0  0  0  0  0
    3.0040    1.3830   52.0810 C   0  0  0  0  0  0  0  0  0  0  0  0
    0.8880    0.9320   48.3440 N   0  0  0  0  0  0  0  0  0  0  0  0
    2.2080    1.2530   50.8370 N   0  0  0  0  0  0  0  0  0  0  0  0
    2.7500    6.9590   50.8620 N   0  0  0  0  0  0  0  0  0  0  0  0
    0.4650   -1.1780   48.8720 O   0  0  0  0  0  0  0  0  0  0  0  0
    2.0160   -0.9690   51.1700 O   0  0  0  0  0  0  0  0  0  0  0  0
    4.6920    5.5800   49.9920 O   0  0  0  0  0  0  0  0  0  0  0  0
    3.4980    6.8610   48.4180 O   0  0  0  0  0  0  0  0  0  0  0  0
    3.4550    6.0940   49.6110 S   0  0  0  0  0  0  0  0  0  0  0  0
  1  2  2  0
  1  4  1  0
  2  6  1  0
  3  5  1  0
  3  6  2  0
  4  5  2  0
  4 18  1  0
  5 19  1  0
  6 25  1  0
  7  8  1  0
  7 18  1  0
  7 21  2  0
  8 19  1  0
  8 22  2  0
  9 11  1  0
  9 13  1  0
 10 12  1  0
 10 13  1  0
 11 14  1  0
 12 14  1  0
 13 15  1  6
 14 20  1  6
 16 18  1  0
 17 19  1  0
 20 25  1  0
 23 25  2  0
 24 25  2  0
M  END
>  <washed_aromatic_smiles>  (401) 
CC1CCC(CC1)NS(=O)(=O)c2ccc3c(c2)n(c(=O)c(=O)n3C)C

>  <name>  (401) 
neg301161

$$$$
neg263424
     RDKit          3D

 25 26  0  0  0  0  0  0  0  0999 V2000
    1.3120    3.6590   48.0370 C   0  0  0  0  0  0  0  0  0  0  0  0
    2.8610    3.2410   49.7930 C   0  0  0  0  0  0  0  0  0  0  0  0
    0.7590    2.3910   48.2390 C   0  0  0  0  0  0  0  0  0  0  0  0
    2.4500    1.9410   49.8550 C   0  0  0  0  0  0  0  0  0  0  0  0
    2.3500    4.0950   48.8530 C   0  0  0  0  0  0  0  0  0  0  0  0
    1.3080    1.5490   49.2090 C   0  0  0  0  0  0  0  0  0  0  0  0
    2.0130    6.1700   51.1490 C   0  0  0  0  0  0  0  0  0  0  0  0
    3.9470    7.9230   53.6980 C   0  0  0  0  0  0  0  0  0  0  0  0
    1.5880    8.5520   53.9690 C   0  0  0  0  0  0  0  0  0  0  0  0
    3.5050    6.5810   53.1110 C   0  0  0  0  0  0  0  0  0  0  0  0
    1.1410    7.3060   53.1650 C   0  0  0  0  0  0  0  0  0  0  0  0
    2.9200    8.3630   54.7300 C   0  0  0  0  0  0  0  0  0  0  0  0
    3.4530    9.5610   55.5220 C   0  0  0  0  0  0  0  0  0  0  0  0
    2.8720    1.1900   52.8190 C   0  0  0  0  0  0  0  0  0  0  0  0
    1.3290   -0.3550   53.8220 C   0  0  0  0  0  0  0  0  0  0  0  0
    2.7100   -1.2020   51.9930 C   0  0  0  0  0  0  0  0  0  0  0  0
    3.0240    5.4290   48.7780 C   0  0  0  0  0  0  0  0  0  0  0  0
    3.1870    6.1600   50.1340 C   0  0  0  0  0  0  0  0  0  0  0  0
    1.9210    0.0080   52.4720 C   0  0  0  0  0  0  0  0  0  0  0  0
    2.2280    6.6740   52.3890 N   0  0  0  0  0  0  0  0  0  0  0  0
    0.7470    0.3330   51.5850 N   0  0  0  0  0  0  0  0  0  0  0  0
    0.8920    5.7980   50.8070 O   0  0  0  0  0  0  0  0  0  0  0  0
   -0.8200    0.1530   49.5900 O   0  0  0  0  0  0  0  0  0  0  0  0
    1.2780   -1.0360   49.4590 O   0  0  0  0  0  0  0  0  0  0  0  0
    0.5610    0.1040   49.9130 S   0  0  0  0  0  0  0  0  0  0  0  0
  1  3  2  0
  1  5  1  0
  2  4  1  0
  2  5  2  0
  3  6  1  0
  4  6  2  0
  5 17  1  0
  6 25  1  0
  7 18  1  0
  7 20  1  0
  7 22  2  0
  8 10  1  0
  8 12  1  0
  9 11  1  0
  9 12  1  0
 10 20  1  0
 11 20  1  0
 12 13  1  0
 14 19  1  0
 15 19  1  0
 16 19  1  0
 17 18  1  0
 19 21  1  0
 21 25  1  0
 23 25  2  0
 24 25  2  0
M  END
>  <washed_aromatic_smiles>  (402) 
CC1CCN(CC1)C(=O)CCc2ccc(cc2)S(=O)(=O)NC(C)(C)C

>  <name>  (402) 
neg263424

$$$$
neg252880
     RDKit          3D

 26 28  0  0  0  0  0  0  0  0999 V2000
    1.9290   -0.8500   50.6540 C   0  0  0  0  0  0  0  0  0  0  0  0
    1.0860   -0.6250   49.5680 C   0  0  0  0  0  0  0  0  0  0  0  0
    2.7030    0.1840   51.1610 C   0  0  0  0  0  0  0  0  0  0  0  0
    1.0290    0.6240   48.9720 C   0  0  0  0  0  0  0  0  0  0  0  0
    2.6500    1.4360   50.5680 C   0  0  0  0  0  0  0  0  0  0  0  0
    1.5210    4.3560   50.8010 C   0  0  0  0  0  0  0  0  0  0  0  0
    3.0130    5.1040   49.0640 C   0  0  0  0  0  0  0  0  0  0  0  0
    1.7620    5.5010   51.5390 C   0  0  0  0  0  0  0  0  0  0  0  0
    3.2720    6.2430   49.8030 C   0  0  0  0  0  0  0  0  0  0  0  0
    1.8260    1.6660   49.4540 C   0  0  0  0  0  0  0  0  0  0  0  0
    2.1200    4.1530   49.5550 C   0  0  0  0  0  0  0  0  0  0  0  0
    2.6450    6.4450   51.0320 C   0  0  0  0  0  0  0  0  0  0  0  0
    1.8130    2.9620   48.7960 C   0  0  0  0  0  0  0  0  0  0  0  0
    5.0640   11.6920   55.4240 C   0  0  0  0  0  0  0  0  0  0  0  0
    5.7160    9.6040   54.1570 C   0  0  0  0  0  0  0  0  0  0  0  0
    4.3400   10.8920   56.5150 C   0  0  0  0  0  0  0  0  0  0  0  0
    5.5510    8.8640   55.5040 C   0  0  0  0  0  0  0  0  0  0  0  0
    5.0360   10.9750   54.0680 C   0  0  0  0  0  0  0  0  0  0  0  0
    5.6330   11.8430   52.9640 C   0  0  0  0  0  0  0  0  0  0  0  0
    2.3690    8.7250   55.2340 C   0  0  0  0  0  0  0  0  0  0  0  0
    2.6880    7.7120   54.1340 C   0  0  0  0  0  0  0  0  0  0  0  0
    3.2340    8.6270   56.4990 C   0  0  0  0  0  0  0  0  0  0  0  0
    2.1670    8.1920   52.7800 C   0  0  0  0  0  0  0  0  0  0  0  0
    4.5390    9.3860   56.5080 N   0  0  0  0  0  0  0  0  0  0  0  0
    1.5410    3.0490   47.6090 O   0  0  0  0  0  0  0  0  0  0  0  0
    2.9030    7.6100   51.6950 O   0  0  0  0  0  0  0  0  0  0  0  0
  1  2  2  0
  1  3  1  0
  2  4  1  0
  3  5  2  0
  4 10  2  0
  5 10  1  0
  6  8  2  0
  6 11  1  0
  7  9  1  0
  7 11  2  0
  8 12  1  0
  9 12  2  0
 10 13  1  0
 11 13  1  0
 12 26  1  0
 13 25  2  0
 14 16  1  0
 14 18  1  0
 15 17  1  0
 15 18  1  0
 16 24  1  0
 17 24  1  0
 18 19  1  0
 20 21  1  0
 20 22  1  0
 21 23  1  0
 22 24  1  0
 23 26  1  0
M  CHG  1  24   1
M  END
>  <washed_aromatic_smiles>  (403) 
CC1CCN(CC1)CCCCOc2ccc(cc2)C(=O)c3ccccc3

>  <name>  (403) 
neg252880

$$$$
neg48965
     RDKit          3D

 25 27  0  0  0  0  0  0  0  0999 V2000
    3.5740    5.4620   52.7940 C   0  0  0  0  0  0  0  0  0  0  0  0
    1.4990    5.8650   51.6440 C   0  0  0  0  0  0  0  0  0  0  0  0
    3.6580    6.7630   53.1810 C   0  0  0  0  0  0  0  0  0  0  0  0
    1.5820    7.1910   52.0640 C   0  0  0  0  0  0  0  0  0  0  0  0
    3.0650    0.7060   50.7560 C   0  0  0  0  0  0  0  0  0  0  0  0
    1.0300    0.9090   51.9520 C   0  0  0  0  0  0  0  0  0  0  0  0
    3.2550   -0.5260   51.3500 C   0  0  0  0  0  0  0  0  0  0  0  0
    1.3050   -0.3190   52.5400 C   0  0  0  0  0  0  0  0  0  0  0  0
    1.9690    1.4810   51.0970 C   0  0  0  0  0  0  0  0  0  0  0  0
    2.5420    5.0060   51.9860 C   0  0  0  0  0  0  0  0  0  0  0  0
    2.7180    7.6470   52.7470 C   0  0  0  0  0  0  0  0  0  0  0  0
    1.9450    2.8850   50.7370 C   0  0  0  0  0  0  0  0  0  0  0  0
    4.8760   10.6330   56.4620 C   0  0  0  0  0  0  0  0  0  0  0  0
    3.4960    8.6240   56.9060 C   0  0  0  0  0  0  0  0  0  0  0  0
    4.6290   10.4920   54.9500 C   0  0  0  0  0  0  0  0  0  0  0  0
    2.7090    9.1280   55.6850 C   0  0  0  0  0  0  0  0  0  0  0  0
    4.8860    9.2480   57.1120 C   0  0  0  0  0  0  0  0  0  0  0  0
    5.2530    9.2810   58.6000 C   0  0  0  0  0  0  0  0  0  0  0  0
    2.4020   -1.0170   52.2440 N   0  0  0  0  0  0  0  0  0  0  0  0
    3.5750    9.5080   54.5870 N   0  0  0  0  0  0  0  0  0  0  0  0
    2.6200    3.6430   51.6570 N   0  0  0  0  0  0  0  0  0  0  0  0
    1.4580    3.3720   49.7270 O   0  0  0  0  0  0  0  0  0  0  0  0
    4.3400    9.5960   52.2390 O   0  0  0  0  0  0  0  0  0  0  0  0
    2.0020   10.0410   52.6290 O   0  0  0  0  0  0  0  0  0  0  0  0
    3.1620    9.3250   52.9820 S   0  0  0  0  0  0  0  0  0  0  0  0
  1  3  2  0
  1 10  1  0
  2  4  1  0
  2 10  2  0
  3 11  1  0
  4 11  2  0
  5  7  2  0
  5  9  1  0
  6  8  1  0
  6  9  2  0
  7 19  1  0
  8 19  2  0
  9 12  1  0
 10 21  1  0
 11 25  1  0
 12 21  1  0
 12 22  2  0
 13 15  1  0
 13 17  1  0
 14 16  1  0
 14 17  1  0
 15 20  1  0
 16 20  1  0
 17 18  1  0
 20 25  1  0
 23 25  2  0
 24 25  2  0
M  END
>  <washed_aromatic_smiles>  (404) 
CC1CCN(CC1)S(=O)(=O)c2ccc(cc2)NC(=O)c3ccncc3

>  <name>  (404) 
neg48965

$$$$
neg174605
     RDKit          3D

 26 28  0  0  0  0  0  0  0  0999 V2000
    2.9030    8.5040   52.4170 C   0  0  0  0  0  0  0  0  0  0  0  0
    3.7050    7.2260   54.2640 C   0  0  0  0  0  0  0  0  0  0  0  0
    2.6740    7.3200   51.7030 C   0  0  0  0  0  0  0  0  0  0  0  0
    3.5560    6.0750   53.5070 C   0  0  0  0  0  0  0  0  0  0  0  0
    0.8180    0.2530   47.7430 C   0  0  0  0  0  0  0  0  0  0  0  0
    0.6690    2.6660   47.5610 C   0  0  0  0  0  0  0  0  0  0  0  0
    1.0520    0.3600   49.0990 C   0  0  0  0  0  0  0  0  0  0  0  0
    0.9800    2.7810   48.8880 C   0  0  0  0  0  0  0  0  0  0  0  0
    3.4770    8.4620   53.6900 C   0  0  0  0  0  0  0  0  0  0  0  0
    2.9970    6.0930   52.2440 C   0  0  0  0  0  0  0  0  0  0  0  0
    0.6010    1.4100   46.9870 C   0  0  0  0  0  0  0  0  0  0  0  0
    1.1700    1.6280   49.6410 C   0  0  0  0  0  0  0  0  0  0  0  0
    2.8350    3.5770   51.8530 C   0  0  0  0  0  0  0  0  0  0  0  0
    5.2360   11.8010   54.4140 C   0  0  0  0  0  0  0  0  0  0  0  0
    4.5370   10.7450   56.5620 C   0  0  0  0  0  0  0  0  0  0  0  0
    4.4510   10.7530   53.5960 C   0  0  0  0  0  0  0  0  0  0  0  0
    3.6120    9.7710   55.8220 C   0  0  0  0  0  0  0  0  0  0  0  0
    4.6680   12.0790   55.8210 C   0  0  0  0  0  0  0  0  0  0  0  0
    5.5210   13.0830   56.5910 C   0  0  0  0  0  0  0  0  0  0  0  0
    1.2450    0.6040   44.8750 C   0  0  0  0  0  0  0  0  0  0  0  0
    2.8550    2.4570   50.8850 C   0  0  0  0  0  0  0  0  0  0  0  0
    3.9410    9.6110   54.3850 N   0  0  0  0  0  0  0  0  0  0  0  0
    2.7590    4.9050   51.4510 N   0  0  0  0  0  0  0  0  0  0  0  0
    2.9830    3.2530   52.9910 O   0  0  0  0  0  0  0  0  0  0  0  0
    0.3680    1.3760   45.6580 O   0  0  0  0  0  0  0  0  0  0  0  0
    1.6120    1.7540   50.8920 O   0  0  0  0  0  0  0  0  0  0  0  0
  1  3  2  0
  1  9  1  0
  2  4  1  0
  2  9  2  0
  3 10  1  0
  4 10  2  0
  5  7  2  0
  5 11  1  0
  6  8  1  0
  6 11  2  0
  7 12  1  0
  8 12  2  0
  9 22  1  0
 10 23  1  0
 11 25  1  0
 12 26  1  0
 13 21  1  0
 13 23  1  0
 13 24  2  0
 14 16  1  0
 14 18  1  0
 15 17  1  0
 15 18  1  0
 16 22  1  0
 17 22  1  0
 18 19  1  0
 20 25  1  0
 21 26  1  0
M  END
>  <washed_aromatic_smiles>  (405) 
CC1CCN(CC1)c2ccc(cc2)NC(=O)COc3ccc(cc3)OC

>  <name>  (405) 
neg174605

$$$$
neg6534
     RDKit          3D

 40 43  0  0  1  0  0  0  0  0999 V2000
    5.8800   12.9470   57.1400 C   0  0  0  0  0  0  0  0  0  0  0  0
    5.3100    0.4640   58.4380 C   0  0  0  0  0  0  0  0  0  0  0  0
    5.5730   12.6920   55.8050 C   0  0  0  0  0  0  0  0  0  0  0  0
    5.3390   12.1530   58.1440 C   0  0  0  0  0  0  0  0  0  0  0  0
    5.2490   -0.6190   57.5680 C   0  0  0  0  0  0  0  0  0  0  0  0
    4.7180    1.6710   58.0800 C   0  0  0  0  0  0  0  0  0  0  0  0
    4.6970   11.6690   55.4690 C   0  0  0  0  0  0  0  0  0  0  0  0
    4.4500   11.1370   57.8230 C   0  0  0  0  0  0  0  0  0  0  0  0
    4.5960   -0.4990   56.3480 C   0  0  0  0  0  0  0  0  0  0  0  0
    4.0480    1.7950   56.8660 C   0  0  0  0  0  0  0  0  0  0  0  0
    3.6530    7.1310   54.1540 C   0  0  0  0  0  0  0  0  0  0  0  0
    3.6460    5.8550   53.6890 C   0  0  0  0  0  0  0  0  0  0  0  0
    3.0390    7.8220   51.9630 C   0  0  0  0  0  0  0  0  0  0  0  0
    3.0040    6.4710   51.5140 C   0  0  0  0  0  0  0  0  0  0  0  0
    4.0990   10.9180   56.4890 C   0  0  0  0  0  0  0  0  0  0  0  0
    3.9780    0.7100   55.9950 C   0  0  0  0  0  0  0  0  0  0  0  0
    3.2750    8.1310   53.3010 C   0  0  0  0  0  0  0  0  0  0  0  0
    3.2320    5.4690   52.4560 C   0  0  0  0  0  0  0  0  0  0  0  0
    2.9900    6.1080   50.1190 C   0  0  0  0  0  0  0  0  0  0  0  0
    2.5340    9.3650   55.1610 C   0  0  0  0  0  0  0  0  0  0  0  0
    3.1140   -0.0390   53.7610 C   0  0  0  0  0  0  0  0  0  0  0  0
    1.3700    4.2310   50.4570 C   0  0  0  0  0  0  0  0  0  0  0  0
    1.7720    2.7250   50.7570 C   0  0  1  0  0  0  0  0  0  0  0  0
    2.7400    2.6850   51.9430 C   0  0  1  0  0  0  0  0  0  0  0  0
    0.6220    1.7020   50.9540 C   0  0  0  0  0  0  0  0  0  0  0  0
    1.3790    3.7190   47.6400 C   0  0  0  0  0  0  0  0  0  0  0  0
    3.1070   -0.7110   51.3680 C   0  0  0  0  0  0  0  0  0  0  0  0
    3.8030    1.5760   51.9350 C   0  0  0  0  0  0  0  0  0  0  0  0
    3.8050    3.8600   48.1850 C   0  0  0  0  0  0  0  0  0  0  0  0
    2.4840    4.5640   48.2980 C   0  0  2  0  0  0  0  0  0  0  0  0
    2.3320    4.9680   49.6840 N   0  0  0  0  0  0  0  0  0  0  0  0
    3.0650    9.9700   56.2880 N   0  0  0  0  0  0  0  0  0  0  0  0
    3.3310    0.9270   54.7320 N   0  0  0  0  0  0  0  0  0  0  0  0
    3.1850    9.3820   53.9310 N   0  0  0  0  0  0  0  0  0  0  0  0
    3.2720    0.2970   52.4180 N   0  0  0  0  0  0  0  0  0  0  0  0
    3.6340    6.7580   49.2990 O   0  0  0  0  0  0  0  0  0  0  0  0
    1.4870    8.7350   55.2870 O   0  0  0  0  0  0  0  0  0  0  0  0
    2.8280   -1.1790   54.0840 O   0  0  0  0  0  0  0  0  0  0  0  0
    3.0940    4.0590   52.3910 O   0  0  0  0  0  0  0  0  0  0  0  0
    4.2970    3.7260   46.9140 O   0  0  0  0  0  0  0  0  0  0  0  0
  1  3  2  0
  1  4  1  0
  2  5  2  0
  2  6  1  0
  3  7  1  0
  4  8  2  0
  5  9  1  0
  6 10  2  0
  7 15  2  0
  8 15  1  0
  9 16  2  0
 10 16  1  0
 11 12  2  0
 11 17  1  0
 12 18  1  0
 13 14  1  0
 13 17  2  0
 14 18  2  0
 14 19  1  0
 15 32  1  0
 16 33  1  0
 17 34  1  0
 18 39  1  0
 19 31  1  0
 19 36  2  0
 20 32  1  0
 20 34  1  0
 20 37  2  0
 21 33  1  0
 21 35  1  0
 21 38  2  0
 22 23  1  0
 22 31  1  0
 23 24  1  0
 23 25  1  1
 24 28  1  6
 24 39  1  0
 30 26  1  1
 27 35  1  0
 28 35  1  0
 29 30  1  0
 29 40  1  0
 30 31  1  0
M  END
>  <washed_aromatic_smiles>  (406) 
C[C@H]1CN(C(=O)c2cc(ccc2O[C@@H]1CN(C)C(=O)Nc3ccccc3)NC(=O)Nc4ccccc4)[C@H](C)CO

>  <name>  (406) 
neg6534

$$$$
neg318278
     RDKit          3D

 28 29  0  0  0  0  0  0  0  0999 V2000
    3.8290    7.9760   56.8430 C   0  0  0  0  0  0  0  0  0  0  0  0
    2.5170    9.6960   55.9050 C   0  0  0  0  0  0  0  0  0  0  0  0
    2.7310    7.3140   51.4200 C   0  0  0  0  0  0  0  0  0  0  0  0
    0.9350    5.9240   52.2200 C   0  0  0  0  0  0  0  0  0  0  0  0
    4.2980    8.8610   57.8090 C   0  0  0  0  0  0  0  0  0  0  0  0
    2.9500   10.6040   56.8380 C   0  0  0  0  0  0  0  0  0  0  0  0
    3.0320    6.3880   50.4340 C   0  0  0  0  0  0  0  0  0  0  0  0
    1.2440    4.9870   51.2570 C   0  0  0  0  0  0  0  0  0  0  0  0
    2.9670    8.4260   55.8130 C   0  0  0  0  0  0  0  0  0  0  0  0
    1.7500    7.0430   52.3850 C   0  0  0  0  0  0  0  0  0  0  0  0
    3.8960   10.2010   57.7540 C   0  0  0  0  0  0  0  0  0  0  0  0
    2.3000    5.2160   50.3950 C   0  0  0  0  0  0  0  0  0  0  0  0
    2.7000    7.8110   54.5050 C   0  0  0  0  0  0  0  0  0  0  0  0
    1.6610    7.8130   53.6160 C   0  0  0  0  0  0  0  0  0  0  0  0
    5.5600   11.3300   59.1270 C   0  0  0  0  0  0  0  0  0  0  0  0
    1.7350    4.0620   48.4810 C   0  0  0  0  0  0  0  0  0  0  0  0
    5.1660    8.0970   54.1030 C   0  0  0  0  0  0  0  0  0  0  0  0
    0.1360    9.4870   52.5960 C   0  0  0  0  0  0  0  0  0  0  0  0
    6.0590   13.6380   58.0900 C   0  0  0  0  0  0  0  0  0  0  0  0
    0.4700    1.8590   48.0000 C   0  0  0  0  0  0  0  0  0  0  0  0
    3.9210    7.1370   54.1020 C   0  0  0  0  0  0  0  0  0  0  0  0
    0.3500    8.5270   53.7500 C   0  0  0  0  0  0  0  0  0  0  0  0
    6.1430   12.7180   59.3230 C   0  0  0  0  0  0  0  0  0  0  0  0
    1.7440    2.6920   47.9060 C   0  0  0  0  0  0  0  0  0  0  0  0
    6.0950   10.3210   59.4990 O   0  0  0  0  0  0  0  0  0  0  0  0
    1.0630    4.9540   48.0440 O   0  0  0  0  0  0  0  0  0  0  0  0
    4.4130   11.2500   58.4680 O   0  0  0  0  0  0  0  0  0  0  0  0
    2.5810    4.2480   49.4990 O   0  0  0  0  0  0  0  0  0  0  0  0
  1  5  2  0
  1  9  1  0
  2  6  1  0
  2  9  2  0
  3  7  2  0
  3 10  1  0
  4  8  1  0
  4 10  2  0
  5 11  1  0
  6 11  2  0
  7 12  1  0
  8 12  2  0
  9 13  1  0
 10 14  1  0
 11 27  1  0
 12 28  1  0
 13 14  2  0
 13 21  1  0
 14 22  1  0
 15 23  1  0
 15 25  2  0
 15 27  1  0
 16 24  1  0
 16 26  2  0
 16 28  1  0
 17 21  1  0
 18 22  1  0
 19 23  1  0
 20 24  1  0
M  END
>  <washed_aromatic_smiles>  (407) 
CC/C(=C(/CC)\c1ccc(cc1)OC(=O)CC)/c2ccc(cc2)OC(=O)CC

>  <name>  (407) 
neg318278

$$$$
neg196261
     RDKit          3D

 26 27  0  0  0  0  0  0  0  0999 V2000
    2.3470   -0.1930   52.5510 C   0  0  0  0  0  0  0  0  0  0  0  0
    2.8490    0.9770   53.1050 C   0  0  0  0  0  0  0  0  0  0  0  0
    1.8560   -0.1760   51.2520 C   0  0  0  0  0  0  0  0  0  0  0  0
    5.2560   12.3990   56.5620 C   0  0  0  0  0  0  0  0  0  0  0  0
    5.4850   12.0460   57.8900 C   0  0  0  0  0  0  0  0  0  0  0  0
    2.8730    2.1500   52.3600 C   0  0  0  0  0  0  0  0  0  0  0  0
    1.8570    1.0010   50.5170 C   0  0  0  0  0  0  0  0  0  0  0  0
    4.6850   11.4850   55.6810 C   0  0  0  0  0  0  0  0  0  0  0  0
    5.1870   10.7600   58.3360 C   0  0  0  0  0  0  0  0  0  0  0  0
    2.3840    2.1950   51.0450 C   0  0  0  0  0  0  0  0  0  0  0  0
    4.3230   10.2140   56.1410 C   0  0  0  0  0  0  0  0  0  0  0  0
    4.6270    9.8360   57.4550 C   0  0  0  0  0  0  0  0  0  0  0  0
    2.4820    3.4000   50.2100 C   0  0  0  0  0  0  0  0  0  0  0  0
    3.4340    9.2860   53.9790 C   0  0  0  0  0  0  0  0  0  0  0  0
    2.5290    6.5140   52.0200 C   0  0  0  0  0  0  0  0  0  0  0  0
    1.3570    3.2950   47.9270 C   0  0  0  0  0  0  0  0  0  0  0  0
    5.2450    7.8350   58.7700 C   0  0  0  0  0  0  0  0  0  0  0  0
    2.6570    3.2110   48.7240 C   0  0  0  0  0  0  0  0  0  0  0  0
    2.1680    8.6320   53.4640 C   0  0  0  0  0  0  0  0  0  0  0  0
    2.2050    7.0950   53.3790 C   0  0  0  0  0  0  0  0  0  0  0  0
    2.4920    4.6230   50.5760 N   0  0  0  0  0  0  0  0  0  0  0  0
    3.5530    9.3140   55.3480 N   0  0  0  0  0  0  0  0  0  0  0  0
    2.3460    5.1570   51.8320 N   0  0  0  0  0  0  0  0  0  0  0  0
    4.2770    9.7890   53.2610 O   0  0  0  0  0  0  0  0  0  0  0  0
    2.9310    7.1870   51.0970 O   0  0  0  0  0  0  0  0  0  0  0  0
    4.3670    8.5360   57.8580 O   0  0  0  0  0  0  0  0  0  0  0  0
  1  2  2  0
  1  3  1  0
  2  6  1  0
  3  7  2  0
  4  5  2  0
  4  8  1  0
  5  9  1  0
  6 10  2  0
  7 10  1  0
  8 11  2  0
  9 12  2  0
 10 13  1  0
 11 12  1  0
 11 22  1  0
 12 26  1  0
 13 18  1  0
 13 21  2  0
 14 19  1  0
 14 22  1  0
 14 24  2  0
 15 20  1  0
 15 23  1  0
 15 25  2  0
 16 18  1  0
 17 26  1  0
 19 20  1  0
 21 23  1  0
M  END
>  <washed_aromatic_smiles>  (408) 
CC/C(=N/NC(=O)CCC(=O)Nc1ccccc1OC)/c2ccccc2

>  <name>  (408) 
neg196261

$$$$
neg195967
     RDKit          3D

 25 27  0  0  0  0  0  0  0  0999 V2000
    2.9930    5.8320   50.1390 C   0  0  0  0  0  0  0  0  0  0  0  0
    3.0210    4.9750   52.3800 C   0  0  0  0  0  0  0  0  0  0  0  0
    3.0840    7.1070   50.6580 C   0  0  0  0  0  0  0  0  0  0  0  0
    3.0500    6.2540   52.9020 C   0  0  0  0  0  0  0  0  0  0  0  0
    5.0930   10.8490   53.1610 C   0  0  0  0  0  0  0  0  0  0  0  0
    5.6790   11.8840   53.8850 C   0  0  0  0  0  0  0  0  0  0  0  0
    2.9090    4.7520   51.0130 C   0  0  0  0  0  0  0  0  0  0  0  0
    3.0280    7.3360   52.0350 C   0  0  0  0  0  0  0  0  0  0  0  0
    4.2790   10.1710   54.0190 C   0  0  0  0  0  0  0  0  0  0  0  0
    5.2250   11.7820   55.1580 C   0  0  0  0  0  0  0  0  0  0  0  0
    3.3520    9.0810   53.8000 C   0  0  0  0  0  0  0  0  0  0  0  0
    1.4120   -0.4200   49.6390 C   0  0  0  0  0  0  0  0  0  0  0  0
    2.3710    3.1930   49.1650 C   0  0  0  0  0  0  0  0  0  0  0  0
    2.8970    2.2820   51.4790 C   0  0  0  0  0  0  0  0  0  0  0  0
    1.4880    1.9650   49.0190 C   0  0  0  0  0  0  0  0  0  0  0  0
    2.9910    0.9520   50.7870 C   0  0  0  0  0  0  0  0  0  0  0  0
   -0.7990   -0.2480   48.4530 C   0  0  0  0  0  0  0  0  0  0  0  0
    0.6620   -0.6580   48.3510 C   0  0  0  0  0  0  0  0  0  0  0  0
    2.7760    3.4330   50.5480 N   0  0  0  0  0  0  0  0  0  0  0  0
    1.8970    0.8030   49.8410 N   0  0  0  0  0  0  0  0  0  0  0  0
    3.1570    8.6770   52.4950 N   0  0  0  0  0  0  0  0  0  0  0  0
    2.7260    8.5430   54.7130 O   0  0  0  0  0  0  0  0  0  0  0  0
    1.7300   -1.3750   50.3370 O   0  0  0  0  0  0  0  0  0  0  0  0
    4.3990   10.7260   55.2650 O   0  0  0  0  0  0  0  0  0  0  0  0
    5.5320   12.8540   56.6680 Br  0  0  0  0  0  0  0  0  0  0  0  0
  1  3  2  0
  1  7  1  0
  2  4  1  0
  2  7  2  0
  3  8  1  0
  4  8  2  0
  5  6  1  0
  5  9  2  0
  6 10  2  0
  7 19  1  0
  8 21  1  0
  9 11  1  0
  9 24  1  0
 10 24  1  0
 10 25  1  0
 11 21  1  0
 11 22  2  0
 12 18  1  0
 12 20  1  0
 12 23  2  0
 13 15  1  0
 13 19  1  0
 14 16  1  0
 14 19  1  0
 15 20  1  0
 16 20  1  0
 17 18  1  0
M  END
>  <washed_aromatic_smiles>  (409) 
CCC(=O)N1CCN(CC1)c2ccc(cc2)NC(=O)c3ccc(o3)Br

>  <name>  (409) 
neg195967

$$$$
neg187720
     RDKit          3D

 25 26  0  0  0  0  0  0  0  0999 V2000
    4.9910   11.9770   57.1000 C   0  0  0  0  0  0  0  0  0  0  0  0
    1.0130    5.5460   51.6960 C   0  0  0  0  0  0  0  0  0  0  0  0
    4.6680   10.7020   57.5520 C   0  0  0  0  0  0  0  0  0  0  0  0
    5.1030   12.2300   55.7360 C   0  0  0  0  0  0  0  0  0  0  0  0
    0.3950    6.7460   51.9740 C   0  0  0  0  0  0  0  0  0  0  0  0
    3.0510    6.3410   52.7570 C   0  0  0  0  0  0  0  0  0  0  0  0
    4.5290    9.9050   55.2420 C   0  0  0  0  0  0  0  0  0  0  0  0
    2.3220    5.3330   52.1070 C   0  0  0  0  0  0  0  0  0  0  0  0
    2.4290    7.5720   53.0180 C   0  0  0  0  0  0  0  0  0  0  0  0
    4.4530    9.6780   56.6270 C   0  0  0  0  0  0  0  0  0  0  0  0
    4.8960   11.2010   54.8180 C   0  0  0  0  0  0  0  0  0  0  0  0
    1.0970    7.7660   52.6030 C   0  0  0  0  0  0  0  0  0  0  0  0
    4.2920    8.7990   54.3270 C   0  0  0  0  0  0  0  0  0  0  0  0
    2.5680    3.0320   51.0830 C   0  0  0  0  0  0  0  0  0  0  0  0
    2.1470    0.8060   52.2870 C   0  0  0  0  0  0  0  0  0  0  0  0
    5.0160    7.7890   58.0770 C   0  0  0  0  0  0  0  0  0  0  0  0
    5.8480   10.7120   52.5880 C   0  0  0  0  0  0  0  0  0  0  0  0
    3.0810    1.6380   51.3970 C   0  0  0  0  0  0  0  0  0  0  0  0
    3.0340    8.6710   53.7470 N   0  0  0  0  0  0  0  0  0  0  0  0
    2.8490    4.0170   52.0120 N   0  0  0  0  0  0  0  0  0  0  0  0
    5.1700    7.9890   54.0870 O   0  0  0  0  0  0  0  0  0  0  0  0
    1.9360    3.2680   50.0700 O   0  0  0  0  0  0  0  0  0  0  0  0
    4.1780    8.4070   57.0730 O   0  0  0  0  0  0  0  0  0  0  0  0
    5.0890   11.5350   53.4990 O   0  0  0  0  0  0  0  0  0  0  0  0
    0.2680    9.2470   52.8250 Cl  0  0  0  0  0  0  0  0  0  0  0  0
  1  3  2  0
  1  4  1  0
  2  5  2  0
  2  8  1  0
  3 10  1  0
  4 11  2  0
  5 12  1  0
  6  8  2  0
  6  9  1  0
  7 10  2  0
  7 11  1  0
  7 13  1  0
  8 20  1  0
  9 12  2  0
  9 19  1  0
 10 23  1  0
 11 24  1  0
 12 25  1  0
 13 19  1  0
 13 21  2  0
 14 18  1  0
 14 20  1  0
 14 22  2  0
 15 18  1  0
 16 23  1  0
 17 24  1  0
M  END
>  <washed_aromatic_smiles>  (410) 
CCC(=O)Nc1ccc(c(c1)NC(=O)c2c(cccc2OC)OC)Cl

>  <name>  (410) 
neg187720

$$$$
neg329213
     RDKit          3D

 27 29  0  0  0  0  0  0  0  0999 V2000
    2.1660   -0.5060   50.8720 C   0  0  0  0  0  0  0  0  0  0  0  0
    1.0740    0.3520   50.8610 C   0  0  0  0  0  0  0  0  0  0  0  0
    3.4230   -0.0190   51.2140 C   0  0  0  0  0  0  0  0  0  0  0  0
    1.8320    8.9560   55.9140 C   0  0  0  0  0  0  0  0  0  0  0  0
    1.2460    1.6950   51.1650 C   0  0  0  0  0  0  0  0  0  0  0  0
    3.5960    1.3190   51.5490 C   0  0  0  0  0  0  0  0  0  0  0  0
    2.8810    9.6790   56.4510 C   0  0  0  0  0  0  0  0  0  0  0  0
    4.1340    9.4060   54.3940 C   0  0  0  0  0  0  0  0  0  0  0  0
    3.0680    8.6580   53.8710 C   0  0  0  0  0  0  0  0  0  0  0  0
    1.9180    8.4170   54.6230 C   0  0  0  0  0  0  0  0  0  0  0  0
    2.5130    2.1980   51.4690 C   0  0  0  0  0  0  0  0  0  0  0  0
    4.0240    9.9130   55.6820 C   0  0  0  0  0  0  0  0  0  0  0  0
    3.0520    8.1540   52.5330 C   0  0  0  0  0  0  0  0  0  0  0  0
    1.0530    7.0370   52.9140 C   0  0  0  0  0  0  0  0  0  0  0  0
    4.8780   12.0600   56.4180 C   0  0  0  0  0  0  0  0  0  0  0  0
    2.2030    4.6700   50.9930 C   0  0  0  0  0  0  0  0  0  0  0  0
   -0.0570    6.3560   52.1690 C   0  0  0  0  0  0  0  0  0  0  0  0
    5.3840   11.8480   58.9230 C   0  0  0  0  0  0  0  0  0  0  0  0
    5.5160   12.6850   57.6340 C   0  0  0  0  0  0  0  0  0  0  0  0
    2.7820    6.0760   51.2100 C   0  0  0  0  0  0  0  0  0  0  0  0
    0.8640    7.6780   54.0230 N   0  0  0  0  0  0  0  0  0  0  0  0
    2.2980    7.0210   52.2900 N   0  0  0  0  0  0  0  0  0  0  0  0
    2.7320    3.6040   51.7110 N   0  0  0  0  0  0  0  0  0  0  0  0
    5.0300   10.7040   56.2610 N   0  0  0  0  0  0  0  0  0  0  0  0
    3.5350    8.7550   51.5980 O   0  0  0  0  0  0  0  0  0  0  0  0
    4.2100   12.7040   55.6340 O   0  0  0  0  0  0  0  0  0  0  0  0
    1.3700    4.4560   50.1340 O   0  0  0  0  0  0  0  0  0  0  0  0
  1  2  2  0
  1  3  1  0
  2  5  1  0
  3  6  2  0
  4  7  2  0
  4 10  1  0
  5 11  2  0
  6 11  1  0
  7 12  1  0
  8  9  1  0
  8 12  2  0
  9 10  2  0
  9 13  1  0
 10 21  1  0
 11 23  1  0
 12 24  1  0
 13 22  1  0
 13 25  2  0
 14 17  1  0
 14 21  2  0
 14 22  1  0
 15 19  1  0
 15 24  1  0
 15 26  2  0
 16 20  1  0
 16 23  1  0
 16 27  2  0
 18 19  1  0
 20 22  1  0
M  END
>  <washed_aromatic_smiles>  (411) 
CCC(=O)Nc1ccc2c(c1)c(=O)n(c(n2)C)CC(=O)Nc3ccccc3

>  <name>  (411) 
neg329213

$$$$
neg233204
     RDKit          3D

 27 29  0  0  0  0  0  0  0  0999 V2000
    1.0270    2.0230   46.7350 C   0  0  0  0  0  0  0  0  0  0  0  0
    1.6770    2.9740   47.5540 C   0  0  0  0  0  0  0  0  0  0  0  0
   -0.0860    7.3640   52.3260 C   0  0  0  0  0  0  0  0  0  0  0  0
    0.2130    8.4580   53.1350 C   0  0  0  0  0  0  0  0  0  0  0  0
   -1.0100    0.2270   50.5550 C   0  0  0  0  0  0  0  0  0  0  0  0
    0.3640    0.9870   47.2960 C   0  0  0  0  0  0  0  0  0  0  0  0
    1.7150    2.8180   48.9160 C   0  0  0  0  0  0  0  0  0  0  0  0
   -0.7220    0.1030   49.2310 C   0  0  0  0  0  0  0  0  0  0  0  0
    0.8570    6.4080   52.0460 C   0  0  0  0  0  0  0  0  0  0  0  0
   -0.1290    0.8540   51.4280 C   0  0  0  0  0  0  0  0  0  0  0  0
    1.4540    8.5520   53.7280 C   0  0  0  0  0  0  0  0  0  0  0  0
    0.2920    0.8860   48.6870 C   0  0  0  0  0  0  0  0  0  0  0  0
    1.0660    1.7170   49.5290 C   0  0  0  0  0  0  0  0  0  0  0  0
    1.0060    1.4600   50.9390 C   0  0  0  0  0  0  0  0  0  0  0  0
    2.1130    6.4710   52.6390 C   0  0  0  0  0  0  0  0  0  0  0  0
    2.4040    7.5620   53.4960 C   0  0  0  0  0  0  0  0  0  0  0  0
    2.0590    1.7080   51.8960 C   0  0  0  0  0  0  0  0  0  0  0  0
    3.0010    5.3550   52.4360 C   0  0  0  0  0  0  0  0  0  0  0  0
    4.2560    8.7730   54.6590 C   0  0  0  0  0  0  0  0  0  0  0  0
    5.0770    9.6360   56.9170 C   0  0  0  0  0  0  0  0  0  0  0  0
    3.0230    2.8410   51.7950 C   0  0  0  0  0  0  0  0  0  0  0  0
    5.2480    8.6070   55.7880 C   0  0  0  0  0  0  0  0  0  0  0  0
    3.6000    7.6330   54.2490 N   0  0  0  0  0  0  0  0  0  0  0  0
    2.1670    1.0010   52.8780 O   0  0  0  0  0  0  0  0  0  0  0  0
    4.1230    5.3570   52.8720 O   0  0  0  0  0  0  0  0  0  0  0  0
    4.0500    9.8480   54.1290 O   0  0  0  0  0  0  0  0  0  0  0  0
    2.4780    4.2100   51.8620 O   0  0  0  0  0  0  0  0  0  0  0  0
  1  2  2  0
  1  6  1  0
  2  7  1  0
  3  4  2  0
  3  9  1  0
  4 11  1  0
  5  8  2  0
  5 10  1  0
  6 12  2  0
  7 13  2  0
  8 12  1  0
  9 15  2  0
 10 14  2  0
 11 16  2  0
 12 13  1  0
 13 14  1  0
 14 17  1  0
 15 16  1  0
 15 18  1  0
 16 23  1  0
 17 21  1  0
 17 24  2  0
 18 25  2  0
 18 27  1  0
 19 22  1  0
 19 23  1  0
 19 26  2  0
 20 22  1  0
 21 27  1  0
M  END
>  <washed_aromatic_smiles>  (412) 
CCC(=O)Nc1ccccc1C(=O)OCC(=O)c2cccc3c2cccc3

>  <name>  (412) 
neg233204

$$$$
neg23907
     RDKit          3D

 33 35  0  0  0  0  0  0  0  0999 V2000
    0.6900    1.7760   47.8240 C   0  0  0  0  0  0  0  0  0  0  0  0
    5.4610   11.9500   55.5670 C   0  0  0  0  0  0  0  0  0  0  0  0
    4.5650   10.6540   57.4040 C   0  0  0  0  0  0  0  0  0  0  0  0
    1.0900    3.0960   47.9740 C   0  0  0  0  0  0  0  0  0  0  0  0
    5.0610   10.9720   54.6710 C   0  0  0  0  0  0  0  0  0  0  0  0
    4.1450    9.6760   56.5070 C   0  0  0  0  0  0  0  0  0  0  0  0
    1.1050    0.8170   48.7460 C   0  0  0  0  0  0  0  0  0  0  0  0
    2.3140    2.4920   49.9780 C   0  0  0  0  0  0  0  0  0  0  0  0
    5.2220   11.8100   56.9450 C   0  0  0  0  0  0  0  0  0  0  0  0
    1.8560    3.4470   49.0760 C   0  0  0  0  0  0  0  0  0  0  0  0
    4.3970    9.8430   55.1400 C   0  0  0  0  0  0  0  0  0  0  0  0
    1.9530    1.1650   49.8080 C   0  0  0  0  0  0  0  0  0  0  0  0
    5.6400   12.8780   57.8420 C   0  0  0  0  0  0  0  0  0  0  0  0
    1.9940    5.4000   50.5040 C   0  0  0  0  0  0  0  0  0  0  0  0
    3.1390    6.9010   53.1610 C   0  0  0  0  0  0  0  0  0  0  0  0
    2.6440   -0.5160   54.6160 C   0  0  0  0  0  0  0  0  0  0  0  0
    2.8590    0.9770   54.6370 C   0  0  0  0  0  0  0  0  0  0  0  0
    1.8660   -0.7580   53.3380 C   0  0  0  0  0  0  0  0  0  0  0  0
    2.9440    1.3360   53.1550 C   0  0  0  0  0  0  0  0  0  0  0  0
    6.8140   13.8560   59.9090 C   0  0  0  0  0  0  0  0  0  0  0  0
    5.9920   12.6890   59.3110 C   0  0  0  0  0  0  0  0  0  0  0  0
    2.9350    6.5350   50.7730 C   0  0  0  0  0  0  0  0  0  0  0  0
    3.0400    7.8700   54.3160 C   0  0  0  0  0  0  0  0  0  0  0  0
    2.1780    0.3170   52.4180 N   0  0  0  0  0  0  0  0  0  0  0  0
    2.1830    4.7880   49.2940 N   0  0  0  0  0  0  0  0  0  0  0  0
    5.7180   13.9990   57.4080 O   0  0  0  0  0  0  0  0  0  0  0  0
    1.2070    4.9560   51.3210 O   0  0  0  0  0  0  0  0  0  0  0  0
    3.7290    5.8250   53.2400 O   0  0  0  0  0  0  0  0  0  0  0  0
    2.0110   -1.3250   50.5150 O   0  0  0  0  0  0  0  0  0  0  0  0
    4.0520   -0.0590   50.7940 O   0  0  0  0  0  0  0  0  0  0  0  0
    4.0170    8.9290   54.1930 O   0  0  0  0  0  0  0  0  0  0  0  0
    2.6570    7.3050   51.9780 O   0  0  0  0  0  0  0  0  0  0  0  0
    2.6290   -0.0980   50.8830 S   0  0  0  0  0  0  0  0  0  0  0  0
  1  4  2  0
  1  7  1  0
  2  5  2  0
  2  9  1  0
  3  6  1  0
  3  9  2  0
  4 10  1  0
  5 11  1  0
  6 11  2  0
  7 12  2  0
  8 10  2  0
  8 12  1  0
  9 13  1  0
 10 25  1  0
 11 31  1  0
 12 33  1  0
 13 21  1  0
 13 26  2  0
 14 22  1  0
 14 25  1  0
 14 27  2  0
 15 23  1  0
 15 28  2  0
 15 32  1  0
 16 17  1  0
 16 18  1  0
 17 19  1  0
 18 24  1  0
 19 24  1  0
 20 21  1  0
 22 32  1  0
 23 31  1  0
 24 33  1  0
 29 33  2  0
 30 33  2  0
M  END
>  <washed_aromatic_smiles>  (413) 
CCC(=O)c1ccc(cc1)OCC(=O)OCC(=O)Nc2cccc(c2)S(=O)(=O)N3CCCC3

>  <name>  (413) 
neg23907

$$$$
neg180673
     RDKit          3D

 27 28  0  0  0  0  0  0  0  0999 V2000
    0.5110    8.3730   52.4700 C   0  0  0  0  0  0  0  0  0  0  0  0
    1.0080    7.0920   52.4840 C   0  0  0  0  0  0  0  0  0  0  0  0
    1.3580    9.4380   52.6840 C   0  0  0  0  0  0  0  0  0  0  0  0
    1.9560    3.0960   49.9850 C   0  0  0  0  0  0  0  0  0  0  0  0
    2.8540    2.9160   52.2310 C   0  0  0  0  0  0  0  0  0  0  0  0
    1.9090    1.7110   49.9220 C   0  0  0  0  0  0  0  0  0  0  0  0
    2.8330    1.5590   52.1540 C   0  0  0  0  0  0  0  0  0  0  0  0
    3.1750    7.9510   53.1570 C   0  0  0  0  0  0  0  0  0  0  0  0
    2.3740    6.9210   52.7040 C   0  0  0  0  0  0  0  0  0  0  0  0
    2.4570    3.6860   51.1430 C   0  0  0  0  0  0  0  0  0  0  0  0
    2.6770    9.2230   53.0860 C   0  0  0  0  0  0  0  0  0  0  0  0
    2.3800    0.9580   51.0000 C   0  0  0  0  0  0  0  0  0  0  0  0
    3.0390    5.7320   52.3240 C   0  0  0  0  0  0  0  0  0  0  0  0
    4.4150   10.4620   54.3630 C   0  0  0  0  0  0  0  0  0  0  0  0
    6.4210   11.0390   52.4210 C   0  0  0  0  0  0  0  0  0  0  0  0
    5.1210   11.9000   57.0200 C   0  0  0  0  0  0  0  0  0  0  0  0
    5.6930   12.2110   53.1050 C   0  0  0  0  0  0  0  0  0  0  0  0
    5.7120   12.3580   55.6810 C   0  0  0  0  0  0  0  0  0  0  0  0
    4.9720   11.8790   54.4150 C   0  0  0  0  0  0  0  0  0  0  0  0
    2.2260   -1.3150   52.4430 N   0  0  0  0  0  0  0  0  0  0  0  0
    2.5120    5.0700   51.2390 N   0  0  0  0  0  0  0  0  0  0  0  0
    3.5540   10.2810   53.2990 N   0  0  0  0  0  0  0  0  0  0  0  0
    4.0500    5.3840   52.9000 O   0  0  0  0  0  0  0  0  0  0  0  0
    4.6770    9.5680   55.1480 O   0  0  0  0  0  0  0  0  0  0  0  0
    1.7630   -1.3000   49.9620 O   0  0  0  0  0  0  0  0  0  0  0  0
    4.0370   -0.8800   50.7460 O   0  0  0  0  0  0  0  0  0  0  0  0
    2.6370   -0.7590   50.9430 S   0  0  0  0  0  0  0  0  0  0  0  0
  1  2  2  0
  1  3  1  0
  2  9  1  0
  3 11  2  0
  4  6  2  0
  4 10  1  0
  5  7  1  0
  5 10  2  0
  6 12  1  0
  7 12  2  0
  8  9  2  0
  8 11  1  0
  9 13  1  0
 10 21  1  0
 11 22  1  0
 12 27  1  0
 13 21  1  0
 13 23  2  0
 14 19  1  0
 14 22  1  0
 14 24  2  0
 15 17  1  0
 16 18  1  0
 17 19  1  0
 18 19  1  0
 20 27  1  0
 25 27  2  0
 26 27  2  0
M  END
>  <washed_aromatic_smiles>  (414) 
CCC(CC)C(=O)Nc1cccc(c1)C(=O)Nc2ccc(cc2)S(=O)(=O)N

>  <name>  (414) 
neg180673

$$$$
neg316600
     RDKit          3D

 31 34  0  0  0  0  0  0  0  0999 V2000
    4.7570    0.2980   57.2970 C   0  0  0  0  0  0  0  0  0  0  0  0
    2.3430    8.5000   54.2760 C   0  0  0  0  0  0  0  0  0  0  0  0
    4.1420    1.5240   57.0690 C   0  0  0  0  0  0  0  0  0  0  0  0
    4.5640   -0.7460   56.4010 C   0  0  0  0  0  0  0  0  0  0  0  0
    1.2550    8.4700   53.4060 C   0  0  0  0  0  0  0  0  0  0  0  0
    3.4200    7.6380   54.0760 C   0  0  0  0  0  0  0  0  0  0  0  0
    3.3470    1.7210   55.9420 C   0  0  0  0  0  0  0  0  0  0  0  0
    3.7880   -0.5520   55.2610 C   0  0  0  0  0  0  0  0  0  0  0  0
    1.2510    7.5960   52.3290 C   0  0  0  0  0  0  0  0  0  0  0  0
    3.4160    6.7480   53.0060 C   0  0  0  0  0  0  0  0  0  0  0  0
    3.2440    0.7060   54.9900 C   0  0  0  0  0  0  0  0  0  0  0  0
    2.3470    6.7590   52.1120 C   0  0  0  0  0  0  0  0  0  0  0  0
    1.9160    1.6050   51.6840 C   0  0  0  0  0  0  0  0  0  0  0  0
    2.0270    3.7300   50.2820 C   0  0  0  0  0  0  0  0  0  0  0  0
    0.9360    0.8510   52.2180 C   0  0  0  0  0  0  0  0  0  0  0  0
    2.8380    4.3590   49.4020 C   0  0  0  0  0  0  0  0  0  0  0  0
    3.0390    1.5340   52.5390 C   0  0  0  0  0  0  0  0  0  0  0  0
    1.5020    4.7170   51.1450 C   0  0  0  0  0  0  0  0  0  0  0  0
   -0.3670    0.4720   51.5610 C   0  0  0  0  0  0  0  0  0  0  0  0
    3.3940    3.9270   48.0590 C   0  0  0  0  0  0  0  0  0  0  0  0
    0.8570    1.4630   48.0420 C   0  0  0  0  0  0  0  0  0  0  0  0
    1.1420   -0.9000   53.8520 C   0  0  0  0  0  0  0  0  0  0  0  0
    3.6790    6.6560   49.1940 C   0  0  0  0  0  0  0  0  0  0  0  0
    1.8870    1.3480   49.1800 C   0  0  0  0  0  0  0  0  0  0  0  0
    1.6580    2.2700   50.3560 C   0  0  0  0  0  0  0  0  0  0  0  0
    2.6070    0.9460   53.7100 N   0  0  0  0  0  0  0  0  0  0  0  0
    2.2870    5.7890   51.0670 N   0  0  0  0  0  0  0  0  0  0  0  0
    1.3360    0.4120   53.4150 N   0  0  0  0  0  0  0  0  0  0  0  0
    3.0200    5.6110   49.8600 N   0  0  0  0  0  0  0  0  0  0  0  0
    4.2370    1.7290   52.2960 O   0  0  0  0  0  0  0  0  0  0  0  0
    0.4350    4.8430   51.7540 O   0  0  0  0  0  0  0  0  0  0  0  0
  1  3  2  0
  1  4  1  0
  2  5  2  0
  2  6  1  0
  3  7  1  0
  4  8  2  0
  5  9  1  0
  6 10  2  0
  7 11  2  0
  8 11  1  0
  9 12  2  0
 10 12  1  0
 11 26  1  0
 12 27  1  0
 13 15  2  0
 13 17  1  0
 13 25  1  0
 14 16  2  0
 14 18  1  0
 14 25  1  0
 15 19  1  0
 15 28  1  0
 16 20  1  0
 16 29  1  0
 17 26  1  0
 17 30  2  0
 18 27  1  0
 18 31  2  0
 21 24  1  0
 22 28  1  0
 23 29  1  0
 24 25  1  0
 26 28  1  0
 27 29  1  0
M  END
>  <washed_aromatic_smiles>  (415) 
CCC(c1c(n(n(c1=O)c2ccccc2)C)C)c3c(n(n(c3=O)c4ccccc4)C)C

>  <name>  (415) 
neg316600

$$$$
neg224659
     RDKit          3D

 28 29  0  0  0  0  0  0  0  0999 V2000
    2.2370   -0.5880   54.4480 C   0  0  0  0  0  0  0  0  0  0  0  0
    5.8170   11.6080   52.9190 C   0  0  0  0  0  0  0  0  0  0  0  0
    2.5130    0.7210   54.7780 C   0  0  0  0  0  0  0  0  0  0  0  0
    2.1310   -0.9680   53.1090 C   0  0  0  0  0  0  0  0  0  0  0  0
    6.6800   10.5370   53.0500 C   0  0  0  0  0  0  0  0  0  0  0  0
    4.4620   11.4030   53.0870 C   0  0  0  0  0  0  0  0  0  0  0  0
    2.6780    1.6450   53.7740 C   0  0  0  0  0  0  0  0  0  0  0  0
    2.3140   -0.0360   52.1040 C   0  0  0  0  0  0  0  0  0  0  0  0
    6.2100    9.2960   53.4400 C   0  0  0  0  0  0  0  0  0  0  0  0
    3.9730   10.1270   53.3530 C   0  0  0  0  0  0  0  0  0  0  0  0
    2.6190    1.2730   52.4410 C   0  0  0  0  0  0  0  0  0  0  0  0
    4.8450    9.0610   53.5400 C   0  0  0  0  0  0  0  0  0  0  0  0
    1.8350    3.5620   49.8470 C   0  0  0  0  0  0  0  0  0  0  0  0
    2.0990    7.5130   53.9650 C   0  0  0  0  0  0  0  0  0  0  0  0
    0.4800    0.8460   47.2650 C   0  0  0  0  0  0  0  0  0  0  0  0
    0.0470    9.3020   52.5390 C   0  0  0  0  0  0  0  0  0  0  0  0
    3.1750    2.1840   51.3990 C   0  0  0  0  0  0  0  0  0  0  0  0
    4.4160    7.6280   53.8230 C   0  0  0  0  0  0  0  0  0  0  0  0
    1.6600    2.2350   49.0560 C   0  0  0  0  0  0  0  0  0  0  0  0
    0.6940    7.1770   53.5950 C   0  0  0  0  0  0  0  0  0  0  0  0
    0.7990    2.2490   47.7980 C   0  0  0  0  0  0  0  0  0  0  0  0
    0.2160    7.7980   52.3230 C   0  0  0  0  0  0  0  0  0  0  0  0
    2.4680    4.6770   52.0160 C   0  0  0  0  0  0  0  0  0  0  0  0
    3.1670    6.0760   51.9630 C   0  0  0  0  0  0  0  0  0  0  0  0
    2.5510    3.5250   50.9990 N   0  0  0  0  0  0  0  0  0  0  0  0
    3.1590    7.0610   53.2610 N   0  0  0  0  0  0  0  0  0  0  0  0
    1.2940    4.5880   49.4440 O   0  0  0  0  0  0  0  0  0  0  0  0
    2.2070    8.2410   54.9590 O   0  0  0  0  0  0  0  0  0  0  0  0
  1  3  2  0
  1  4  1  0
  2  5  2  0
  2  6  1  0
  3  7  1  0
  4  8  2  0
  5  9  1  0
  6 10  2  0
  7 11  2  0
  8 11  1  0
  9 12  2  0
 10 12  1  0
 11 17  1  0
 12 18  1  0
 13 19  1  0
 13 25  1  0
 13 27  2  0
 14 20  1  0
 14 26  1  0
 14 28  2  0
 15 21  1  0
 16 22  1  0
 17 25  1  0
 18 26  1  0
 19 21  1  0
 20 22  1  0
 23 24  1  0
 23 25  1  0
 24 26  1  0
M  END
>  <washed_aromatic_smiles>  (416) 
CCCC(=O)N(CCN(Cc1ccccc1)C(=O)CCC)Cc2ccccc2

>  <name>  (416) 
neg224659

$$$$
neg49794
     RDKit          3D

 32 34  0  0  0  0  0  0  0  0999 V2000
    1.7460    8.7430   55.3750 C   0  0  0  0  0  0  0  0  0  0  0  0
    1.8560    7.7810   54.3900 C   0  0  0  0  0  0  0  0  0  0  0  0
    1.6460    3.9920   48.0050 C   0  0  0  0  0  0  0  0  0  0  0  0
    1.0020    2.8490   47.5620 C   0  0  0  0  0  0  0  0  0  0  0  0
    2.7450    9.6860   55.5370 C   0  0  0  0  0  0  0  0  0  0  0  0
    2.4270    2.8290   49.9840 C   0  0  0  0  0  0  0  0  0  0  0  0
    3.9550    8.7390   53.7110 C   0  0  0  0  0  0  0  0  0  0  0  0
    2.3860    3.9800   49.1920 C   0  0  0  0  0  0  0  0  0  0  0  0
    2.9930    7.7390   53.5910 C   0  0  0  0  0  0  0  0  0  0  0  0
    1.0430    1.7180   48.3450 C   0  0  0  0  0  0  0  0  0  0  0  0
    1.6810    1.7330   49.5880 C   0  0  0  0  0  0  0  0  0  0  0  0
    3.8200    9.7400   54.6540 C   0  0  0  0  0  0  0  0  0  0  0  0
   -0.4380    0.0320   48.9750 C   0  0  0  0  0  0  0  0  0  0  0  0
    0.0720    0.2140   50.3530 C   0  0  0  0  0  0  0  0  0  0  0  0
    2.9350    5.2100   49.6910 C   0  0  0  0  0  0  0  0  0  0  0  0
    3.1250    6.6670   52.6410 C   0  0  0  0  0  0  0  0  0  0  0  0
    5.8540   13.5570   57.7970 C   0  0  0  0  0  0  0  0  0  0  0  0
    4.3340   10.1570   58.1790 C   0  0  0  0  0  0  0  0  0  0  0  0
    5.6680   12.9920   56.3760 C   0  0  0  0  0  0  0  0  0  0  0  0
    5.4420   10.6790   57.2800 C   0  0  0  0  0  0  0  0  0  0  0  0
    0.2590    0.6360   47.9760 N   0  0  0  0  0  0  0  0  0  0  0  0
    1.3300    0.7420   50.5070 N   0  0  0  0  0  0  0  0  0  0  0  0
    2.1620    5.7640   50.6530 N   0  0  0  0  0  0  0  0  0  0  0  0
    2.5790    6.8890   51.4260 N   0  0  0  0  0  0  0  0  0  0  0  0
    5.0910   11.6330   56.2050 N   0  0  0  0  0  0  0  0  0  0  0  0
   -1.4850   -0.5030   48.6380 O   0  0  0  0  0  0  0  0  0  0  0  0
   -0.5750    0.0600   51.3750 O   0  0  0  0  0  0  0  0  0  0  0  0
    3.9770    5.7390   49.3030 O   0  0  0  0  0  0  0  0  0  0  0  0
    3.6360    5.5780   52.9070 O   0  0  0  0  0  0  0  0  0  0  0  0
    6.2410   10.5680   54.1980 O   0  0  0  0  0  0  0  0  0  0  0  0
    4.4710   12.1400   53.8070 O   0  0  0  0  0  0  0  0  0  0  0  0
    4.9920   11.0940   54.6250 S   0  0  0  0  0  0  0  0  0  0  0  0
  1  2  2  0
  1  5  1  0
  2  9  1  0
  3  4  2  0
  3  8  1  0
  4 10  1  0
  5 12  2  0
  6  8  2  0
  6 11  1  0
  7  9  2  0
  7 12  1  0
  8 15  1  0
  9 16  1  0
 10 11  2  0
 10 21  1  0
 11 22  1  0
 12 32  1  0
 13 14  1  0
 13 21  1  0
 13 26  2  0
 14 22  1  0
 14 27  2  0
 15 23  1  0
 15 28  2  0
 16 24  1  0
 16 29  2  0
 17 19  1  0
 18 20  1  0
 19 25  1  0
 20 25  1  0
 23 24  1  0
 25 32  1  0
 30 32  2  0
 31 32  2  0
M  END
>  <washed_aromatic_smiles>  (417) 
CCN(CC)S(=O)(=O)c1cccc(c1)C(=O)NNC(=O)c2ccc3c(c2)[nH]c(=O)c(=O)[nH]3

>  <name>  (417) 
neg49794

$$$$
neg137467
     RDKit          3D

 25 26  0  0  0  0  0  0  0  0999 V2000
    2.3890   -0.7020   51.6600 C   0  0  0  0  0  0  0  0  0  0  0  0
    1.3600    9.0070   52.6600 C   0  0  0  0  0  0  0  0  0  0  0  0
    1.7830    1.2320   50.1930 C   0  0  0  0  0  0  0  0  0  0  0  0
    3.0160    1.4900   52.2480 C   0  0  0  0  0  0  0  0  0  0  0  0
    1.6870    2.6170   50.0740 C   0  0  0  0  0  0  0  0  0  0  0  0
    2.8940    2.8500   52.1410 C   0  0  0  0  0  0  0  0  0  0  0  0
    1.2520    7.6380   52.4800 C   0  0  0  0  0  0  0  0  0  0  0  0
    2.6030    9.5670   52.9550 C   0  0  0  0  0  0  0  0  0  0  0  0
    3.5600    7.4110   53.1940 C   0  0  0  0  0  0  0  0  0  0  0  0
    2.4050    0.6740   51.3150 C   0  0  0  0  0  0  0  0  0  0  0  0
    2.1800    3.4430   51.0940 C   0  0  0  0  0  0  0  0  0  0  0  0
    2.4020    6.8720   52.6390 C   0  0  0  0  0  0  0  0  0  0  0  0
    3.6930    8.7870   53.3030 C   0  0  0  0  0  0  0  0  0  0  0  0
    1.8740    4.8700   51.1800 C   0  0  0  0  0  0  0  0  0  0  0  0
    2.9330    9.7520   56.6640 C   0  0  0  0  0  0  0  0  0  0  0  0
    5.0960   12.8970   54.3460 C   0  0  0  0  0  0  0  0  0  0  0  0
    4.4350    9.7370   56.3780 C   0  0  0  0  0  0  0  0  0  0  0  0
    5.2560   11.8530   55.4610 C   0  0  0  0  0  0  0  0  0  0  0  0
    2.3950   -1.7600   52.0680 N   0  0  0  0  0  0  0  0  0  0  0  0
    2.5200    5.5530   52.1970 N   0  0  0  0  0  0  0  0  0  0  0  0
    4.7880   10.4770   55.1610 N   0  0  0  0  0  0  0  0  0  0  0  0
    1.0610    5.4370   50.4670 O   0  0  0  0  0  0  0  0  0  0  0  0
    6.1840    8.6190   54.1570 O   0  0  0  0  0  0  0  0  0  0  0  0
    5.6020   10.4910   52.7400 O   0  0  0  0  0  0  0  0  0  0  0  0
    5.2220    9.6090   53.7930 S   0  0  0  0  0  0  0  0  0  0  0  0
  1 10  1  0
  1 19  3  0
  2  7  2  0
  2  8  1  0
  3  5  2  0
  3 10  1  0
  4  6  1  0
  4 10  2  0
  5 11  1  0
  6 11  2  0
  7 12  1  0
  8 13  2  0
  9 12  2  0
  9 13  1  0
 11 14  1  0
 12 20  1  0
 13 25  1  0
 14 20  1  0
 14 22  2  0
 15 17  1  0
 16 18  1  0
 17 21  1  0
 18 21  1  0
 21 25  1  0
 23 25  2  0
 24 25  2  0
M  END
>  <washed_aromatic_smiles>  (418) 
CCN(CC)S(=O)(=O)c1cccc(c1)NC(=O)c2ccc(cc2)C#N

>  <name>  (418) 
neg137467

$$$$
neg220995
     RDKit          3D

 25 27  0  0  0  0  0  0  0  0999 V2000
    5.8220   12.2960   55.9390 C   0  0  0  0  0  0  0  0  0  0  0  0
    5.1350   11.9200   57.0900 C   0  0  0  0  0  0  0  0  0  0  0  0
    5.6050   11.6210   54.7470 C   0  0  0  0  0  0  0  0  0  0  0  0
    4.2080   10.8890   57.0390 C   0  0  0  0  0  0  0  0  0  0  0  0
    2.9800    5.9260   52.6190 C   0  0  0  0  0  0  0  0  0  0  0  0
    3.0620    6.6720   50.3460 C   0  0  0  0  0  0  0  0  0  0  0  0
    2.8540    4.6110   52.1670 C   0  0  0  0  0  0  0  0  0  0  0  0
    2.9110    5.3710   49.8880 C   0  0  0  0  0  0  0  0  0  0  0  0
    4.6830   10.5670   54.6800 C   0  0  0  0  0  0  0  0  0  0  0  0
    3.9440   10.2250   55.8310 C   0  0  0  0  0  0  0  0  0  0  0  0
    2.9970    6.9700   51.7060 C   0  0  0  0  0  0  0  0  0  0  0  0
    2.7500    4.3200   50.8010 C   0  0  0  0  0  0  0  0  0  0  0  0
    4.4450    9.8530   53.4310 C   0  0  0  0  0  0  0  0  0  0  0  0
    2.8590    9.2570   55.7230 C   0  0  0  0  0  0  0  0  0  0  0  0
    3.3310    8.9260   53.3470 C   0  0  0  0  0  0  0  0  0  0  0  0
    2.5090    8.7190   54.4290 C   0  0  0  0  0  0  0  0  0  0  0  0
    3.6250    0.9470   51.4380 C   0  0  0  0  0  0  0  0  0  0  0  0
    1.2000    3.0020   48.2020 C   0  0  0  0  0  0  0  0  0  0  0  0
    2.3580    1.7800   51.2160 C   0  0  0  0  0  0  0  0  0  0  0  0
    2.5020    2.6520   48.9170 C   0  0  0  0  0  0  0  0  0  0  0  0
    3.0680    8.3500   52.0810 N   0  0  0  0  0  0  0  0  0  0  0  0
    2.5230    2.9700   50.3450 N   0  0  0  0  0  0  0  0  0  0  0  0
    5.1750   10.0770   52.4700 O   0  0  0  0  0  0  0  0  0  0  0  0
    2.2200    8.9650   56.7300 O   0  0  0  0  0  0  0  0  0  0  0  0
    0.9620    7.9570   54.2340 Cl  0  0  0  0  0  0  0  0  0  0  0  0
  1  2  2  0
  1  3  1  0
  2  4  1  0
  3  9  2  0
  4 10  2  0
  5  7  2  0
  5 11  1  0
  6  8  1  0
  6 11  2  0
  7 12  1  0
  8 12  2  0
  9 10  1  0
  9 13  1  0
 10 14  1  0
 11 21  1  0
 12 22  1  0
 13 15  1  0
 13 23  2  0
 14 16  1  0
 14 24  2  0
 15 16  2  0
 15 21  1  0
 16 25  1  0
 17 19  1  0
 18 20  1  0
 19 22  1  0
 20 22  1  0
M  END
>  <washed_aromatic_smiles>  (419) 
CCN(CC)c1ccc(cc1)NC2=C(C(=O)c3ccccc3C2=O)Cl

>  <name>  (419) 
neg220995

$$$$
neg116299
     RDKit          3D

 25 26  0  0  0  0  0  0  0  0999 V2000
    3.1800    6.3180   52.7460 C   0  0  0  0  0  0  0  0  0  0  0  0
    0.8110    6.8440   52.7390 C   0  0  0  0  0  0  0  0  0  0  0  0
    3.5790   -0.7570   54.9420 C   0  0  0  0  0  0  0  0  0  0  0  0
    3.0130    1.5280   55.2660 C   0  0  0  0  0  0  0  0  0  0  0  0
    3.3940    7.2990   53.7020 C   0  0  0  0  0  0  0  0  0  0  0  0
    1.0280    7.8130   53.7150 C   0  0  0  0  0  0  0  0  0  0  0  0
    4.3430   -0.7440   56.1110 C   0  0  0  0  0  0  0  0  0  0  0  0
    3.7600    1.5590   56.4370 C   0  0  0  0  0  0  0  0  0  0  0  0
    1.8860    6.0790   52.2780 C   0  0  0  0  0  0  0  0  0  0  0  0
    2.9490    0.3880   54.4760 C   0  0  0  0  0  0  0  0  0  0  0  0
    2.3180    8.0170   54.2190 C   0  0  0  0  0  0  0  0  0  0  0  0
    4.4460    0.4260   56.8560 C   0  0  0  0  0  0  0  0  0  0  0  0
    2.4960    4.5750   50.4030 C   0  0  0  0  0  0  0  0  0  0  0  0
    1.1150    2.3010   47.8680 C   0  0  0  0  0  0  0  0  0  0  0  0
    2.2250    3.2050   48.4350 C   0  0  0  0  0  0  0  0  0  0  0  0
    1.8770    2.1450   50.7350 C   0  0  0  0  0  0  0  0  0  0  0  0
    2.7450    1.8070   51.9670 C   0  0  0  0  0  0  0  0  0  0  0  0
    1.6370    4.9980   51.3950 N   0  0  0  0  0  0  0  0  0  0  0  0
    2.2650    3.3100   49.9000 N   0  0  0  0  0  0  0  0  0  0  0  0
    3.3900    5.2950   49.9500 O   0  0  0  0  0  0  0  0  0  0  0  0
    2.5450   -0.7940   52.1600 O   0  0  0  0  0  0  0  0  0  0  0  0
    0.7500    0.5450   53.0660 O   0  0  0  0  0  0  0  0  0  0  0  0
    2.1430    0.3740   52.8690 S   0  0  0  0  0  0  0  0  0  0  0  0
    2.6080    9.1150   55.5240 Cl  0  0  0  0  0  0  0  0  0  0  0  0
    5.4080    0.4680   58.2960 Cl  0  0  0  0  0  0  0  0  0  0  0  0
  1  5  2  0
  1  9  1  0
  2  6  1  0
  2  9  2  0
  3  7  2  0
  3 10  1  0
  4  8  1  0
  4 10  2  0
  5 11  1  0
  6 11  2  0
  7 12  1  0
  8 12  2  0
  9 18  1  0
 10 23  1  0
 11 24  1  0
 12 25  1  0
 13 18  1  0
 13 19  1  0
 13 20  2  0
 14 15  1  0
 15 19  1  0
 16 17  1  0
 16 19  1  0
 17 23  1  0
 21 23  2  0
 22 23  2  0
M  END
>  <washed_aromatic_smiles>  (420) 
CCN(CCS(=O)(=O)c1ccc(cc1)Cl)C(=O)Nc2ccc(cc2)Cl

>  <name>  (420) 
neg116299

$$$$
neg16498
     RDKit          3D

 27 29  0  0  1  0  0  0  0  0999 V2000
    2.6170    1.1710   50.6610 C   0  0  0  0  0  0  0  0  0  0  0  0
    3.0000    2.0220   51.6900 C   0  0  0  0  0  0  0  0  0  0  0  0
    1.8910    1.6710   49.5860 C   0  0  0  0  0  0  0  0  0  0  0  0
    2.6440    3.3680   51.6510 C   0  0  0  0  0  0  0  0  0  0  0  0
    1.5390    3.0160   49.5490 C   0  0  0  0  0  0  0  0  0  0  0  0
    5.8930   10.0800   52.9450 C   0  0  0  0  0  0  0  0  0  0  0  0
    4.4230   11.9270   53.1770 C   0  0  0  0  0  0  0  0  0  0  0  0
    6.8880   10.9860   52.7680 C   0  0  0  0  0  0  0  0  0  0  0  0
    5.4820   12.7750   53.1070 C   0  0  0  0  0  0  0  0  0  0  0  0
    4.6060   10.5490   53.1100 C   0  0  0  0  0  0  0  0  0  0  0  0
    1.8820    3.8700   50.5980 C   0  0  0  0  0  0  0  0  0  0  0  0
    2.8280    7.3370   53.5140 C   0  0  2  0  0  0  0  0  0  0  0  0
    2.5390    6.9320   52.0550 C   0  0  0  0  0  0  0  0  0  0  0  0
    1.5300    7.7090   54.1620 C   0  0  0  0  0  0  0  0  0  0  0  0
    0.4350    6.2730   52.6810 C   0  0  0  0  0  0  0  0  0  0  0  0
    3.5320    9.6070   53.1700 C   0  0  0  0  0  0  0  0  0  0  0  0
    4.4260    9.4680   56.0420 C   0  0  0  0  0  0  0  0  0  0  0  0
    1.4300    5.3210   50.5370 C   0  0  0  0  0  0  0  0  0  0  0  0
    4.5430    8.2910   55.0540 C   0  0  0  0  0  0  0  0  0  0  0  0
    6.6570   12.2750   52.8920 N   0  0  0  0  0  0  0  0  0  0  0  0
    0.4570    7.1490   53.6920 N   0  0  0  0  0  0  0  0  0  0  0  0
    1.5210    6.1440   51.7960 N   0  0  0  0  0  0  0  0  0  0  0  0
    3.1420    7.3850   51.0100 N   0  0  0  0  0  0  0  0  0  0  0  0
    3.7920    8.3930   53.7630 N   0  0  0  0  0  0  0  0  0  0  0  0
    1.4630    8.5390   55.0810 O   0  0  0  0  0  0  0  0  0  0  0  0
   -0.5260    5.5700   52.4560 O   0  0  0  0  0  0  0  0  0  0  0  0
    2.4460    9.8320   52.6550 O   0  0  0  0  0  0  0  0  0  0  0  0
  1  2  2  0
  1  3  1  0
  2  4  1  0
  3  5  2  0
  4 11  2  0
  5 11  1  0
  6  8  2  0
  6 10  1  0
  7  9  1  0
  7 10  2  0
  8 20  1  0
  9 20  2  0
 10 16  1  0
 11 18  1  0
 12 13  1  0
 12 14  1  0
 12 24  1  6
 13 22  1  0
 13 23  2  0
 14 21  1  0
 14 25  2  0
 15 21  1  0
 15 22  1  0
 15 26  2  0
 16 24  1  0
 16 27  2  0
 17 19  1  0
 18 22  1  0
 19 24  1  0
M  CHG  2  21  -1  23   1
M  END
>  <washed_aromatic_smiles>  (421) 
CCN(c1c(n(c(=O)[nH]c1=O)Cc2ccccc2)N)C(=O)c3ccncc3

>  <name>  (421) 
neg16498

$$$$
neg300005
     RDKit          3D

 25 27  0  0  0  0  0  0  0  0999 V2000
    4.5550    9.1200   57.0700 C   0  0  0  0  0  0  0  0  0  0  0  0
    3.2540    9.4030   57.4610 C   0  0  0  0  0  0  0  0  0  0  0  0
    2.9320    4.0800   52.3500 C   0  0  0  0  0  0  0  0  0  0  0  0
    4.7910    8.5890   55.8200 C   0  0  0  0  0  0  0  0  0  0  0  0
    3.2210    5.3970   52.7240 C   0  0  0  0  0  0  0  0  0  0  0  0
    2.8330    6.1140   50.4950 C   0  0  0  0  0  0  0  0  0  0  0  0
    2.3990    8.5210   55.4170 C   0  0  0  0  0  0  0  0  0  0  0  0
    2.5630    4.8150   50.1000 C   0  0  0  0  0  0  0  0  0  0  0  0
    2.1500    9.0050   56.6950 C   0  0  0  0  0  0  0  0  0  0  0  0
    2.5730    3.8000   51.0330 C   0  0  0  0  0  0  0  0  0  0  0  0
    3.7120    8.4440   54.9460 C   0  0  0  0  0  0  0  0  0  0  0  0
    3.0280    6.4350   51.8400 C   0  0  0  0  0  0  0  0  0  0  0  0
    2.2040    1.2610   50.8990 C   0  0  0  0  0  0  0  0  0  0  0  0
    2.2150    4.3070   48.7360 C   0  0  0  0  0  0  0  0  0  0  0  0
    1.8250    2.8530   49.0250 C   0  0  0  0  0  0  0  0  0  0  0  0
    0.6770    9.0090   57.1780 C   0  0  0  0  0  0  0  0  0  0  0  0
    2.8130    0.8980   52.2340 C   0  0  0  0  0  0  0  0  0  0  0  0
    5.8300   10.2810   52.8870 C   0  0  0  0  0  0  0  0  0  0  0  0
    4.4250   10.0100   53.4300 C   0  0  0  0  0  0  0  0  0  0  0  0
    2.2030    2.5680   50.4210 N   0  0  0  0  0  0  0  0  0  0  0  0
    4.0380    8.5470   53.5920 N   0  0  0  0  0  0  0  0  0  0  0  0
    1.7160    0.3890   50.2020 O   0  0  0  0  0  0  0  0  0  0  0  0
    3.5830    8.7920   51.1700 O   0  0  0  0  0  0  0  0  0  0  0  0
    1.6710    8.5390   52.5970 O   0  0  0  0  0  0  0  0  0  0  0  0
    3.0100    8.1740   52.2860 S   0  0  0  0  0  0  0  0  0  0  0  0
  1  2  2  0
  1  4  1  0
  2  9  1  0
  3  5  2  0
  3 10  1  0
  4 11  2  0
  5 12  1  0
  6  8  1  0
  6 12  2  0
  7  9  2  0
  7 11  1  0
  8 10  2  0
  8 14  1  0
  9 16  1  0
 10 20  1  0
 11 21  1  0
 12 25  1  0
 13 17  1  0
 13 20  1  0
 13 22  2  0
 14 15  1  0
 15 20  1  0
 18 19  1  0
 19 21  1  0
 21 25  1  0
 23 25  2  0
 24 25  2  0
M  END
>  <washed_aromatic_smiles>  (422) 
CCN(c1cccc(c1)C)S(=O)(=O)c2ccc3c(c2)CCN3C(=O)C

>  <name>  (422) 
neg300005

$$$$
neg59144
     RDKit          3D

 27 29  0  0  0  0  0  0  0  0999 V2000
    1.1140    0.0610   49.7570 C   0  0  0  0  0  0  0  0  0  0  0  0
    5.5670   13.4340   57.2730 C   0  0  0  0  0  0  0  0  0  0  0  0
    1.8100    0.8180   50.6920 C   0  0  0  0  0  0  0  0  0  0  0  0
    0.6320    0.6620   48.5990 C   0  0  0  0  0  0  0  0  0  0  0  0
    5.5950   12.2380   57.9780 C   0  0  0  0  0  0  0  0  0  0  0  0
    5.1100   13.4490   55.9600 C   0  0  0  0  0  0  0  0  0  0  0  0
    3.8300    7.3270   53.4420 C   0  0  0  0  0  0  0  0  0  0  0  0
    1.8950    8.6950   53.0770 C   0  0  0  0  0  0  0  0  0  0  0  0
    2.0180    2.1780   50.4760 C   0  0  0  0  0  0  0  0  0  0  0  0
    0.8400    2.0210   48.3820 C   0  0  0  0  0  0  0  0  0  0  0  0
    5.1900   11.0560   57.3720 C   0  0  0  0  0  0  0  0  0  0  0  0
    4.6870   12.2840   55.3480 C   0  0  0  0  0  0  0  0  0  0  0  0
    3.2430    6.2750   52.7680 C   0  0  0  0  0  0  0  0  0  0  0  0
    1.2820    7.6430   52.4020 C   0  0  0  0  0  0  0  0  0  0  0  0
    3.2120    8.5640   53.5470 C   0  0  0  0  0  0  0  0  0  0  0  0
    1.5250    2.7920   49.3220 C   0  0  0  0  0  0  0  0  0  0  0  0
    2.0080    6.4760   52.1550 C   0  0  0  0  0  0  0  0  0  0  0  0
    4.7110   11.0680   56.0500 C   0  0  0  0  0  0  0  0  0  0  0  0
    4.0360    9.6540   54.0600 C   0  0  0  0  0  0  0  0  0  0  0  0
    2.3470    5.0970   50.1440 C   0  0  0  0  0  0  0  0  0  0  0  0
    2.1350    9.3000   56.6990 C   0  0  0  0  0  0  0  0  0  0  0  0
    1.6940    4.2810   49.0540 C   0  0  0  0  0  0  0  0  0  0  0  0
    3.5490    8.8650   56.3520 C   0  0  0  0  0  0  0  0  0  0  0  0
    1.5470    5.5590   51.1830 N   0  0  0  0  0  0  0  0  0  0  0  0
    4.1880    9.8460   55.4520 N   0  0  0  0  0  0  0  0  0  0  0  0
    4.6990   10.3410   53.2900 O   0  0  0  0  0  0  0  0  0  0  0  0
    3.5340    5.3610   50.0930 O   0  0  0  0  0  0  0  0  0  0  0  0
  1  3  2  0
  1  4  1  0
  2  5  2  0
  2  6  1  0
  3  9  1  0
  4 10  2  0
  5 11  1  0
  6 12  2  0
  7 13  2  0
  7 15  1  0
  8 14  1  0
  8 15  2  0
  9 16  2  0
 10 16  1  0
 11 18  2  0
 12 18  1  0
 13 17  1  0
 14 17  2  0
 15 19  1  0
 16 22  1  0
 17 24  1  0
 18 25  1  0
 19 25  1  0
 19 26  2  0
 20 22  1  0
 20 24  1  0
 20 27  2  0
 21 23  1  0
 23 25  1  0
M  END
>  <washed_aromatic_smiles>  (423) 
CCN(c1ccccc1)C(=O)c2ccc(cc2)NC(=O)Cc3ccccc3

>  <name>  (423) 
neg59144

$$$$
neg178986
     RDKit          3D

 26 27  0  0  0  0  0  0  0  0999 V2000
    3.2840    0.7760   55.8210 C   0  0  0  0  0  0  0  0  0  0  0  0
    2.9020    1.8800   55.1020 C   0  0  0  0  0  0  0  0  0  0  0  0
    3.2260   -0.4630   55.2180 C   0  0  0  0  0  0  0  0  0  0  0  0
    2.5730    1.7610   53.7560 C   0  0  0  0  0  0  0  0  0  0  0  0
    2.7060   -0.6170   53.9360 C   0  0  0  0  0  0  0  0  0  0  0  0
    3.0680    3.3390   48.7500 C   0  0  0  0  0  0  0  0  0  0  0  0
    2.1550    2.3910   49.1790 C   0  0  0  0  0  0  0  0  0  0  0  0
    1.4530    3.8690   50.9290 C   0  0  0  0  0  0  0  0  0  0  0  0
    2.3160    0.5140   53.2120 C   0  0  0  0  0  0  0  0  0  0  0  0
    2.4660    4.7500   50.6190 C   0  0  0  0  0  0  0  0  0  0  0  0
    3.2840    4.4560   49.5390 C   0  0  0  0  0  0  0  0  0  0  0  0
    1.4290    2.6020   50.3510 C   0  0  0  0  0  0  0  0  0  0  0  0
    1.7580    6.7610   51.9270 C   0  0  0  0  0  0  0  0  0  0  0  0
    2.2110   -1.4010   50.3960 C   0  0  0  0  0  0  0  0  0  0  0  0
    0.6420    8.3470   54.4230 C   0  0  0  0  0  0  0  0  0  0  0  0
    3.4270    6.2970   48.3990 C   0  0  0  0  0  0  0  0  0  0  0  0
    2.2810    8.0230   52.5770 C   0  0  0  0  0  0  0  0  0  0  0  0
    2.7560   -0.1740   51.0460 C   0  0  0  0  0  0  0  0  0  0  0  0
    2.6990    5.9470   51.3540 N   0  0  0  0  0  0  0  0  0  0  0  0
    1.2280    8.8980   53.1900 N   0  0  0  0  0  0  0  0  0  0  0  0
    1.7550    0.3450   51.9160 N   0  0  0  0  0  0  0  0  0  0  0  0
    0.5680    6.5020   51.8840 O   0  0  0  0  0  0  0  0  0  0  0  0
   -0.4280    1.6680   51.9860 O   0  0  0  0  0  0  0  0  0  0  0  0
    0.0100    0.4630   49.9860 O   0  0  0  0  0  0  0  0  0  0  0  0
    4.1730    5.3720   49.1480 O   0  0  0  0  0  0  0  0  0  0  0  0
    0.5370    1.2180   51.0670 S   0  0  0  0  0  0  0  0  0  0  0  0
  1  2  2  0
  1  3  1  0
  2  4  1  0
  3  5  2  0
  4  9  2  0
  5  9  1  0
  6  7  2  0
  6 11  1  0
  7 12  1  0
  8 10  1  0
  8 12  2  0
  9 21  1  0
 10 11  2  0
 10 19  1  0
 11 25  1  0
 12 26  1  0
 13 17  1  0
 13 19  1  0
 13 22  2  0
 14 18  1  0
 15 20  1  0
 16 25  1  0
 17 20  1  0
 18 21  1  0
 21 26  1  0
 23 26  2  0
 24 26  2  0
M  CHG  1  20   1
M  END
>  <washed_aromatic_smiles>  (424) 
CCN(c1ccccc1)S(=O)(=O)c2ccc(c(c2)NC(=O)CNC)OC

>  <name>  (424) 
neg178986

$$$$
neg23853
     RDKit          3D

 28 30  0  0  0  0  0  0  0  0999 V2000
    1.2540    0.1220   49.8730 C   0  0  0  0  0  0  0  0  0  0  0  0
    2.2790    0.4520   50.7540 C   0  0  0  0  0  0  0  0  0  0  0  0
    0.7280    1.0950   49.0290 C   0  0  0  0  0  0  0  0  0  0  0  0
    5.0910   13.4580   55.8630 C   0  0  0  0  0  0  0  0  0  0  0  0
    2.2360    8.0680   53.7320 C   0  0  0  0  0  0  0  0  0  0  0  0
    3.4060    8.5600   51.7380 C   0  0  0  0  0  0  0  0  0  0  0  0
    2.7790    1.7480   50.7960 C   0  0  0  0  0  0  0  0  0  0  0  0
    1.2050    2.4000   49.0770 C   0  0  0  0  0  0  0  0  0  0  0  0
    1.7810    6.9070   53.1150 C   0  0  0  0  0  0  0  0  0  0  0  0
    3.0130    7.3700   51.1480 C   0  0  0  0  0  0  0  0  0  0  0  0
    5.4610   13.2510   57.1830 C   0  0  0  0  0  0  0  0  0  0  0  0
    4.6350   12.3860   55.1360 C   0  0  0  0  0  0  0  0  0  0  0  0
    3.1850    8.8460   53.0750 C   0  0  0  0  0  0  0  0  0  0  0  0
    2.2390    2.7420   49.9640 C   0  0  0  0  0  0  0  0  0  0  0  0
    2.3020    6.4670   51.8870 C   0  0  0  0  0  0  0  0  0  0  0  0
    5.3280   11.9820   57.7400 C   0  0  0  0  0  0  0  0  0  0  0  0
    4.5400   11.1320   55.7570 C   0  0  0  0  0  0  0  0  0  0  0  0
    4.0420    9.8530   53.7000 C   0  0  0  0  0  0  0  0  0  0  0  0
    5.6820   11.7690   59.1870 C   0  0  0  0  0  0  0  0  0  0  0  0
    3.4200    3.8590   47.7060 C   0  0  0  0  0  0  0  0  0  0  0  0
    2.8890    4.8060   48.7930 C   0  0  0  0  0  0  0  0  0  0  0  0
    4.8720   10.9410   57.0370 N   0  0  0  0  0  0  0  0  0  0  0  0
    4.0300   10.0080   55.0770 N   0  0  0  0  0  0  0  0  0  0  0  0
    2.7290    4.1070   50.0560 N   0  0  0  0  0  0  0  0  0  0  0  0
    4.8460   10.5190   53.0520 O   0  0  0  0  0  0  0  0  0  0  0  0
    0.6840    4.6010   51.3940 O   0  0  0  0  0  0  0  0  0  0  0  0
    2.7630    4.0500   52.5070 O   0  0  0  0  0  0  0  0  0  0  0  0
    2.0810    4.7420   51.4770 S   0  0  0  0  0  0  0  0  0  0  0  0
  1  2  2  0
  1  3  1  0
  2  7  1  0
  3  8  2  0
  4 11  2  0
  4 12  1  0
  5  9  2  0
  5 13  1  0
  6 10  1  0
  6 13  2  0
  7 14  2  0
  8 14  1  0
  9 15  1  0
 10 15  2  0
 11 16  1  0
 12 17  2  0
 13 18  1  0
 14 24  1  0
 15 28  1  0
 16 19  1  0
 16 22  2  0
 17 22  1  0
 17 23  1  0
 18 23  1  0
 18 25  2  0
 20 21  1  0
 21 24  1  0
 24 28  1  0
 26 28  2  0
 27 28  2  0
M  END
>  <washed_aromatic_smiles>  (425) 
CCN(c1ccccc1)S(=O)(=O)c2ccc(cc2)C(=O)Nc3cccc(n3)C

>  <name>  (425) 
neg23853

$$$$
neg142357
     RDKit          3D

 27 29  0  0  0  0  0  0  0  0999 V2000
    6.3350    9.9980   53.3510 C   0  0  0  0  0  0  0  0  0  0  0  0
   -0.2000    7.2470   52.3560 C   0  0  0  0  0  0  0  0  0  0  0  0
    6.4880    8.9900   54.2920 C   0  0  0  0  0  0  0  0  0  0  0  0
    5.0890   10.2180   52.7840 C   0  0  0  0  0  0  0  0  0  0  0  0
    0.1100    8.1970   53.3280 C   0  0  0  0  0  0  0  0  0  0  0  0
    0.7050    6.3030   51.9450 C   0  0  0  0  0  0  0  0  0  0  0  0
    5.4110    8.2610   54.7200 C   0  0  0  0  0  0  0  0  0  0  0  0
    4.0380    9.3490   53.0630 C   0  0  0  0  0  0  0  0  0  0  0  0
    1.3370    8.1500   53.9500 C   0  0  0  0  0  0  0  0  0  0  0  0
    1.9590    6.2760   52.5230 C   0  0  0  0  0  0  0  0  0  0  0  0
    4.2480    8.3200   53.9910 C   0  0  0  0  0  0  0  0  0  0  0  0
    2.2560    7.1960   53.5420 C   0  0  0  0  0  0  0  0  0  0  0  0
    1.3590    1.6000   50.3500 C   0  0  0  0  0  0  0  0  0  0  0  0
    0.6190    0.8840   49.3380 C   0  0  0  0  0  0  0  0  0  0  0  0
    1.2990    2.8410   48.4810 C   0  0  0  0  0  0  0  0  0  0  0  0
    2.8270    4.9580   50.6920 C   0  0  0  0  0  0  0  0  0  0  0  0
    0.7890    0.8410   45.8510 C   0  0  0  0  0  0  0  0  0  0  0  0
    2.9370    3.5300   50.2320 C   0  0  0  0  0  0  0  0  0  0  0  0
   -0.1020    1.3670   46.9750 C   0  0  0  0  0  0  0  0  0  0  0  0
    1.7640    2.7880   49.7850 N   0  0  0  0  0  0  0  0  0  0  0  0
    0.5900    1.6810   48.2230 N   0  0  0  0  0  0  0  0  0  0  0  0
    2.8090    5.2530   52.0400 N   0  0  0  0  0  0  0  0  0  0  0  0
    1.6490    1.2510   51.4900 O   0  0  0  0  0  0  0  0  0  0  0  0
    0.1210   -0.2320   49.3850 O   0  0  0  0  0  0  0  0  0  0  0  0
    1.5200    3.7360   47.6770 O   0  0  0  0  0  0  0  0  0  0  0  0
    2.7610    5.8570   49.8850 O   0  0  0  0  0  0  0  0  0  0  0  0
    3.4370    7.2330   54.1670 O   0  0  0  0  0  0  0  0  0  0  0  0
  1  3  2  0
  1  4  1  0
  2  5  2  0
  2  6  1  0
  3  7  1  0
  4  8  2  0
  5  9  1  0
  6 10  2  0
  7 11  2  0
  8 11  1  0
  9 12  2  0
 10 12  1  0
 10 22  1  0
 11 27  1  0
 12 27  1  0
 13 14  1  0
 13 20  1  0
 13 23  2  0
 14 21  1  0
 14 24  2  0
 15 20  1  0
 15 21  1  0
 15 25  2  0
 16 18  1  0
 16 22  1  0
 16 26  2  0
 17 19  1  0
 18 20  1  0
 19 21  1  0
M  END
>  <washed_aromatic_smiles>  (426) 
CCN1C(=O)C(=O)N(C1=O)CC(=O)Nc2ccccc2Oc3ccccc3

>  <name>  (426) 
neg142357

$$$$
neg73970
     RDKit          3D

 31 35  0  0  1  0  0  0  0  0999 V2000
    4.8340    0.6620   57.6790 C   0  0  0  0  0  0  0  0  0  0  0  0
    4.7170   -0.4870   56.9190 C   0  0  0  0  0  0  0  0  0  0  0  0
    4.2310    1.8280   57.2360 C   0  0  0  0  0  0  0  0  0  0  0  0
    3.1920    4.7680   49.8500 C   0  0  0  0  0  0  0  0  0  0  0  0
    1.2520    4.5460   51.1800 C   0  0  0  0  0  0  0  0  0  0  0  0
    3.2980    6.0910   50.2620 C   0  0  0  0  0  0  0  0  0  0  0  0
    1.3850    5.8420   51.6440 C   0  0  0  0  0  0  0  0  0  0  0  0
    4.0600   -0.4390   55.6980 C   0  0  0  0  0  0  0  0  0  0  0  0
    3.4750    1.8570   56.0620 C   0  0  0  0  0  0  0  0  0  0  0  0
    2.2430    3.9190   50.4270 C   0  0  0  0  0  0  0  0  0  0  0  0
    2.4810    6.5900   51.2730 C   0  0  0  0  0  0  0  0  0  0  0  0
    3.5110    0.7590   55.2010 C   0  0  0  0  0  0  0  0  0  0  0  0
    0.6300    0.8960   49.2220 C   0  0  0  0  0  0  0  0  0  0  0  0
    1.1120   -0.3360   51.0570 C   0  0  0  0  0  0  0  0  0  0  0  0
    3.3120   -0.1630   52.8540 C   0  0  0  0  0  0  0  0  0  0  0  0
    3.0730    2.0530   52.8730 C   0  0  0  0  0  0  0  0  0  0  0  0
    2.5110    2.3770   50.3930 C   0  0  2  0  0  0  0  0  0  0  0  0
    2.0360    1.1690   49.5680 C   0  0  1  0  0  0  0  0  0  0  0  0
    2.4110   -0.0660   50.4510 C   0  0  1  0  0  0  0  0  0  0  0  0
    3.4630    0.3730   51.4420 C   0  0  2  0  0  0  0  0  0  0  0  0
    2.7660    7.8710   52.0320 C   0  0  0  0  0  0  0  0  0  0  0  0
    4.8690    0.1780   50.8870 C   0  0  0  0  0  0  0  0  0  0  0  0
   -0.6820    1.5010   51.8170 C   0  0  0  0  0  0  0  0  0  0  0  0
   -1.0440    0.4190   50.8290 C   0  0  0  0  0  0  0  0  0  0  0  0
    3.1970    0.8990   53.7260 N   0  0  0  0  0  0  0  0  0  0  0  0
    0.1430    0.0720   50.1890 N   0  0  0  0  0  0  0  0  0  0  0  0
    3.1930    1.7530   51.5690 N   0  0  0  0  0  0  0  0  0  0  0  0
    0.0580    1.2070   48.2040 O   0  0  0  0  0  0  0  0  0  0  0  0
    0.9010   -0.5580   52.2260 O   0  0  0  0  0  0  0  0  0  0  0  0
    3.0880   -1.3230   53.1550 O   0  0  0  0  0  0  0  0  0  0  0  0
    2.9480    3.2020   53.1730 O   0  0  0  0  0  0  0  0  0  0  0  0
  1  2  2  0
  1  3  1  0
  2  8  1  0
  3  9  2  0
  4  6  2  0
  4 10  1  0
  5  7  1  0
  5 10  2  0
  6 11  1  0
  7 11  2  0
  8 12  2  0
  9 12  1  0
 17 10  1  1
 11 21  1  0
 12 25  1  0
 18 13  1  1
 13 26  1  0
 13 28  2  0
 19 14  1  1
 14 26  1  0
 14 29  2  0
 15 20  1  0
 15 25  1  0
 15 30  2  0
 16 25  1  0
 16 27  1  0
 16 31  2  0
 17 18  1  0
 17 27  1  0
 18 19  1  0
 19 20  1  0
 20 22  1  6
 20 27  1  0
 23 24  1  0
 24 26  1  0
M  END
>  <washed_aromatic_smiles>  (427) 
CCN1C(=O)[C@H]2[C@H](N3C(=O)N(C(=O)[C@]3([C@H]2C1=O)C)c4ccccc4)c5ccc(cc5)C

>  <name>  (427) 
neg73970

$$$$
neg280667
     RDKit          3D

 26 27  0  0  0  0  0  0  0  0999 V2000
   -0.3640    0.4010   48.2370 C   0  0  0  0  0  0  0  0  0  0  0  0
    0.6330    1.1970   47.6890 C   0  0  0  0  0  0  0  0  0  0  0  0
    0.3730    0.9810   50.4770 C   0  0  0  0  0  0  0  0  0  0  0  0
    1.4500    1.6810   49.9210 C   0  0  0  0  0  0  0  0  0  0  0  0
   -0.5710    0.4240   49.6190 C   0  0  0  0  0  0  0  0  0  0  0  0
    1.4580    1.9210   48.5420 C   0  0  0  0  0  0  0  0  0  0  0  0
    3.0270    4.7320   50.9090 C   0  0  0  0  0  0  0  0  0  0  0  0
    3.7220    5.7000   53.0110 C   0  0  0  0  0  0  0  0  0  0  0  0
    2.6140    7.0750   51.2970 C   0  0  0  0  0  0  0  0  0  0  0  0
    3.3330    6.7850   54.0300 C   0  0  0  0  0  0  0  0  0  0  0  0
    2.5480    8.2330   52.3310 C   0  0  0  0  0  0  0  0  0  0  0  0
    4.4410    9.2590   55.5580 C   0  0  0  0  0  0  0  0  0  0  0  0
   -2.9830   -0.6020   49.4530 C   0  0  0  0  0  0  0  0  0  0  0  0
    1.4790    4.2070   48.0010 C   0  0  0  0  0  0  0  0  0  0  0  0
    2.4590    0.8710   53.2090 C   0  0  0  0  0  0  0  0  0  0  0  0
    2.3560    3.4390   51.3520 C   0  0  0  0  0  0  0  0  0  0  0  0
    3.3810    9.2410   54.4510 C   0  0  0  0  0  0  0  0  0  0  0  0
    2.9320    5.7460   51.7920 N   0  0  0  0  0  0  0  0  0  0  0  0
    3.4970    8.1280   53.4630 N   0  0  0  0  0  0  0  0  0  0  0  0
    2.5550    2.1360   50.6880 N   0  0  0  0  0  0  0  0  0  0  0  0
    3.5490    4.8960   49.8110 O   0  0  0  0  0  0  0  0  0  0  0  0
    4.6270    1.2640   51.8570 O   0  0  0  0  0  0  0  0  0  0  0  0
    3.0700   -0.3540   50.9960 O   0  0  0  0  0  0  0  0  0  0  0  0
   -1.8280    0.0870   50.1410 O   0  0  0  0  0  0  0  0  0  0  0  0
    2.2020    2.9580   48.0400 O   0  0  0  0  0  0  0  0  0  0  0  0
    3.2820    0.9070   51.6180 S   0  0  0  0  0  0  0  0  0  0  0  0
  1  2  2  0
  1  5  1  0
  2  6  1  0
  3  4  1  0
  3  5  2  0
  4  6  2  0
  4 20  1  0
  5 24  1  0
  6 25  1  0
  7 16  1  0
  7 18  1  0
  7 21  2  0
  8 10  1  0
  8 18  1  0
  9 11  1  0
  9 18  1  0
 10 19  1  0
 11 19  1  0
 12 17  1  0
 13 24  1  0
 14 25  1  0
 15 26  1  0
 16 20  1  0
 17 19  1  0
 20 26  1  0
 22 26  2  0
 23 26  2  0
M  CHG  1  19   1
M  END
>  <washed_aromatic_smiles>  (428) 
CCN1CCN(CC1)C(=O)CN(c2cc(ccc2OC)OC)S(=O)(=O)C

>  <name>  (428) 
neg280667

$$$$
neg19373
     RDKit          3D

 26 28  0  0  0  0  0  0  0  0999 V2000
    3.5280    0.6270   55.8320 C   0  0  0  0  0  0  0  0  0  0  0  0
    3.8100   -0.6410   55.3430 C   0  0  0  0  0  0  0  0  0  0  0  0
    2.4970    1.3410   55.2420 C   0  0  0  0  0  0  0  0  0  0  0  0
    1.6240    3.5690   50.0560 C   0  0  0  0  0  0  0  0  0  0  0  0
    2.8710    3.3430   52.0640 C   0  0  0  0  0  0  0  0  0  0  0  0
    3.1640   -1.1270   54.2170 C   0  0  0  0  0  0  0  0  0  0  0  0
    1.8000    0.8160   54.1640 C   0  0  0  0  0  0  0  0  0  0  0  0
    1.6610    2.1780   49.8940 C   0  0  0  0  0  0  0  0  0  0  0  0
    3.0410    2.0080   51.8270 C   0  0  0  0  0  0  0  0  0  0  0  0
    2.1690    4.1740   51.2020 C   0  0  0  0  0  0  0  0  0  0  0  0
    2.1940   -0.3740   53.5380 C   0  0  0  0  0  0  0  0  0  0  0  0
    2.3370    1.3850   50.8240 C   0  0  0  0  0  0  0  0  0  0  0  0
    1.9020    5.5900   51.5180 C   0  0  0  0  0  0  0  0  0  0  0  0
    3.6840    6.2140   53.3500 C   0  0  0  0  0  0  0  0  0  0  0  0
    2.6290    7.9040   52.0170 C   0  0  0  0  0  0  0  0  0  0  0  0
    3.3160    6.9910   54.6090 C   0  0  0  0  0  0  0  0  0  0  0  0
    3.2740    8.8760   53.0240 C   0  0  0  0  0  0  0  0  0  0  0  0
    0.6230    8.4410   54.5590 C   0  0  0  0  0  0  0  0  0  0  0  0
    1.9630    8.8900   55.1720 C   0  0  0  0  0  0  0  0  0  0  0  0
    2.7470    6.4610   52.2530 N   0  0  0  0  0  0  0  0  0  0  0  0
    3.1890    8.4520   54.4660 N   0  0  0  0  0  0  0  0  0  0  0  0
    1.6850   -0.7260   52.3630 N   0  0  0  0  0  0  0  0  0  0  0  0
    0.8460    6.0780   51.1280 O   0  0  0  0  0  0  0  0  0  0  0  0
    3.7300   -0.7770   50.9230 O   0  0  0  0  0  0  0  0  0  0  0  0
    1.5210   -0.9090   49.8760 O   0  0  0  0  0  0  0  0  0  0  0  0
    2.3520   -0.3920   50.9250 S   0  0  2  0  0  0  0  0  0  0  0  0
  1  2  2  0
  1  3  1  0
  2  6  1  0
  3  7  2  0
  4  8  2  0
  4 10  1  0
  5  9  1  0
  5 10  2  0
  6 11  2  0
  7 11  1  0
  8 12  1  0
  9 12  2  0
 10 13  1  0
 11 22  1  0
 12 26  1  0
 13 20  1  0
 13 23  2  0
 14 16  1  0
 14 20  1  0
 15 17  1  0
 15 20  1  0
 16 21  1  0
 17 21  1  0
 18 19  1  0
 19 21  1  0
 22 26  2  0
 24 26  2  0
 26 25  1  6
M  CHG  2  21   1  25  -1
M  END
>  <washed_aromatic_smiles>  (429) 
CCN1CCN(CC1)C(=O)c2ccc(cc2)S(=O)(=O)Nc3ccccc3

>  <name>  (429) 
neg19373

$$$$
neg158046
     RDKit          3D

 25 26  0  0  0  0  0  0  0  0999 V2000
   -0.2090    0.1920   48.9940 C   0  0  0  0  0  0  0  0  0  0  0  0
   -0.0420    0.2650   50.3690 C   0  0  0  0  0  0  0  0  0  0  0  0
    1.5140    1.8350   48.7220 C   0  0  0  0  0  0  0  0  0  0  0  0
    0.6370    0.9250   48.1560 C   0  0  0  0  0  0  0  0  0  0  0  0
    1.0170    0.9790   50.9410 C   0  0  0  0  0  0  0  0  0  0  0  0
    1.6800    1.9010   50.1060 C   0  0  0  0  0  0  0  0  0  0  0  0
    0.6600    0.7640   46.7140 C   0  0  0  0  0  0  0  0  0  0  0  0
    1.3850    0.6680   52.3220 C   0  0  0  0  0  0  0  0  0  0  0  0
    2.6460    4.1800   50.1220 C   0  0  0  0  0  0  0  0  0  0  0  0
    0.9200    5.4620   51.2490 C   0  0  0  0  0  0  0  0  0  0  0  0
    3.0950    6.3550   50.8560 C   0  0  0  0  0  0  0  0  0  0  0  0
    0.6520    6.5030   52.3530 C   0  0  0  0  0  0  0  0  0  0  0  0
    2.9520    7.3410   52.0130 C   0  0  0  0  0  0  0  0  0  0  0  0
    0.4600    8.3430   54.5900 C   0  0  0  0  0  0  0  0  0  0  0  0
    1.7440   -1.4780   46.9160 C   0  0  0  0  0  0  0  0  0  0  0  0
    2.8090    0.8890   54.2990 C   0  0  0  0  0  0  0  0  0  0  0  0
    1.5850    8.5540   53.5930 C   0  0  0  0  0  0  0  0  0  0  0  0
    2.3360    5.1550   51.0590 N   0  0  0  0  0  0  0  0  0  0  0  0
    1.5620    7.7140   52.3550 N   0  0  0  0  0  0  0  0  0  0  0  0
    2.4480    2.9170   50.6830 N   0  0  0  0  0  0  0  0  0  0  0  0
    0.2450    1.6030   45.9430 O   0  0  0  0  0  0  0  0  0  0  0  0
    0.7700   -0.1420   52.9930 O   0  0  0  0  0  0  0  0  0  0  0  0
    1.2770   -0.3100   46.1700 O   0  0  0  0  0  0  0  0  0  0  0  0
    2.4780    1.2190   52.9120 O   0  0  0  0  0  0  0  0  0  0  0  0
    3.3170    4.5020   48.6030 S   0  0  0  0  0  0  0  0  0  0  0  0
  1  2  2  0
  1  4  1  0
  2  5  1  0
  3  4  2  0
  3  6  1  0
  4  7  1  0
  5  6  2  0
  5  8  1  0
  6 20  1  0
  7 21  2  0
  7 23  1  0
  8 22  2  0
  8 24  1  0
  9 18  1  0
  9 20  1  0
  9 25  2  0
 10 12  1  0
 10 18  1  0
 11 13  1  0
 11 18  1  0
 12 19  1  0
 13 19  1  0
 14 17  1  0
 15 23  1  0
 16 24  1  0
 17 19  1  0
M  CHG  1  19   1
M  END
>  <washed_aromatic_smiles>  (430) 
CCN1CCN(CC1)C(=S)Nc2cc(ccc2C(=O)OC)C(=O)OC

>  <name>  (430) 
neg158046

$$$$
neg40714
     RDKit          3D

 31 34  0  0  1  0  0  0  0  0999 V2000
    1.1880    0.1990   45.6930 C   0  0  0  0  0  0  0  0  0  0  0  0
    1.4730   -0.6840   46.7290 C   0  0  0  0  0  0  0  0  0  0  0  0
    0.5010    1.3650   45.9560 C   0  0  0  0  0  0  0  0  0  0  0  0
    1.1270   -0.3570   48.0300 C   0  0  0  0  0  0  0  0  0  0  0  0
    0.2500    1.7330   47.2630 C   0  0  0  0  0  0  0  0  0  0  0  0
    1.7770    3.6780   49.2180 C   0  0  0  0  0  0  0  0  0  0  0  0
    2.1880    2.5920   51.3130 C   0  0  0  0  0  0  0  0  0  0  0  0
    2.3240    4.8490   49.7220 C   0  0  0  0  0  0  0  0  0  0  0  0
    2.7040    3.7750   51.8220 C   0  0  0  0  0  0  0  0  0  0  0  0
    0.6750    0.9250   48.3180 C   0  0  0  0  0  0  0  0  0  0  0  0
    1.5960    2.5580   50.0480 C   0  0  0  0  0  0  0  0  0  0  0  0
    2.6900    4.9540   51.0690 C   0  0  0  0  0  0  0  0  0  0  0  0
    2.5580    8.2240   54.5150 C   0  0  0  0  0  0  0  0  0  0  0  0
    3.2160    8.9250   55.5840 C   0  0  0  0  0  0  0  0  0  0  0  0
    4.5760    8.8260   55.5030 C   0  0  0  0  0  0  0  0  0  0  0  0
    3.5050    7.5720   53.7400 C   0  0  0  0  0  0  0  0  0  0  0  0
    0.7720    1.3980   49.6840 C   0  0  0  0  0  0  0  0  0  0  0  0
    3.0000    6.2650   51.6530 C   0  0  0  0  0  0  0  0  0  0  0  0
    1.1330    8.0930   54.2400 C   0  0  0  0  0  0  0  0  0  0  0  0
    2.6500    9.6550   56.8050 C   0  0  0  0  0  0  0  0  0  0  0  0
    5.5490    9.1450   56.5950 C   0  0  0  0  0  0  0  0  0  0  0  0
    3.7500   10.0710   57.8070 C   0  0  0  0  0  0  0  0  0  0  0  0
    6.3370    7.6880   59.3580 C   0  0  0  0  0  0  0  0  0  0  0  0
    5.6680    9.0430   59.1080 C   0  0  0  0  0  0  0  0  0  0  0  0
    4.8350    9.0670   57.8790 N   0  0  2  0  0  0  0  0  0  0  0  0
    0.2150    8.4650   55.1670 N   0  0  0  0  0  0  0  0  0  0  0  0
    3.3270    6.3690   52.9930 N   0  0  0  0  0  0  0  0  0  0  0  0
    0.2010    0.7670   50.5600 O   0  0  0  0  0  0  0  0  0  0  0  0
    2.9650    7.2940   51.0090 O   0  0  0  0  0  0  0  0  0  0  0  0
    0.6540    7.6310   53.2090 O   0  0  0  0  0  0  0  0  0  0  0  0
    5.1140    8.0860   54.0690 S   0  0  0  0  0  0  0  0  0  0  0  0
  1  2  2  0
  1  3  1  0
  2  4  1  0
  3  5  2  0
  4 10  2  0
  5 10  1  0
  6  8  2  0
  6 11  1  0
  7  9  1  0
  7 11  2  0
  8 12  1  0
  9 12  2  0
 10 17  1  0
 11 17  1  0
 12 18  1  0
 13 14  1  0
 13 16  2  0
 13 19  1  0
 14 15  2  0
 14 20  1  0
 15 21  1  0
 15 31  1  0
 16 27  1  0
 16 31  1  0
 17 28  2  0
 18 27  1  0
 18 29  2  0
 19 26  1  0
 19 30  2  0
 20 22  1  0
 21 25  1  0
 22 25  1  0
 23 24  1  0
 25 24  1  1
M  CHG  1  25   1
M  END
>  <washed_aromatic_smiles>  (431) 
CCN1CCc2c(sc(c2C(=O)N)NC(=O)c3ccc(cc3)C(=O)c4ccccc4)C1

>  <name>  (431) 
neg40714

$$$$
neg111489
     RDKit          3D

 25 27  0  0  0  0  0  0  0  0999 V2000
    2.8560   -0.2760   53.4930 C   0  0  0  0  0  0  0  0  0  0  0  0
   -0.8140   -0.1270   48.5440 C   0  0  0  0  0  0  0  0  0  0  0  0
    2.8850    1.0380   53.9330 C   0  0  0  0  0  0  0  0  0  0  0  0
    2.8750   -0.5340   52.1290 C   0  0  0  0  0  0  0  0  0  0  0  0
   -0.1140    0.5100   47.5220 C   0  0  0  0  0  0  0  0  0  0  0  0
   -0.6280    0.2880   49.8570 C   0  0  0  0  0  0  0  0  0  0  0  0
    2.8910    2.0780   53.0120 C   0  0  0  0  0  0  0  0  0  0  0  0
    2.9020    0.5140   51.2170 C   0  0  0  0  0  0  0  0  0  0  0  0
    0.8130    1.4790   47.8060 C   0  0  0  0  0  0  0  0  0  0  0  0
    0.3100    1.2470   50.1450 C   0  0  0  0  0  0  0  0  0  0  0  0
    2.8310    1.8500   51.6370 C   0  0  0  0  0  0  0  0  0  0  0  0
    1.0770    1.8250   49.1270 C   0  0  0  0  0  0  0  0  0  0  0  0
    2.6240    2.9780   50.6950 C   0  0  0  0  0  0  0  0  0  0  0  0
    2.0370    2.8510   49.4280 C   0  0  0  0  0  0  0  0  0  0  0  0
    2.9010    5.1720   50.1580 C   0  0  0  0  0  0  0  0  0  0  0  0
    1.8320    6.7950   52.6360 C   0  0  0  0  0  0  0  0  0  0  0  0
    0.3310    9.2320   52.8090 C   0  0  0  0  0  0  0  0  0  0  0  0
    0.8140    8.4420   54.0340 C   0  0  0  0  0  0  0  0  0  0  0  0
    2.9450    4.2050   51.0750 N   0  0  0  0  0  0  0  0  0  0  0  0
    2.2240    3.7990   48.4840 N   0  0  0  0  0  0  0  0  0  0  0  0
    2.6760    4.9660   48.8440 N   0  0  0  0  0  0  0  0  0  0  0  0
    3.0500    6.4590   50.5490 N   0  0  0  0  0  0  0  0  0  0  0  0
    1.9470    7.5950   53.7530 N   0  0  0  0  0  0  0  0  0  0  0  0
    3.0240    6.8010   51.9610 N   0  0  0  0  0  0  0  0  0  0  0  0
    0.4310    5.9980   52.1340 S   0  0  0  0  0  0  0  0  0  0  0  0
  1  3  2  0
  1  4  1  0
  2  5  2  0
  2  6  1  0
  3  7  1  0
  4  8  2  0
  5  9  1  0
  6 10  2  0
  7 11  2  0
  8 11  1  0
  9 12  2  0
 10 12  1  0
 11 13  1  0
 12 14  1  0
 13 14  2  0
 13 19  1  0
 14 20  1  0
 15 19  2  0
 15 21  1  0
 15 22  1  0
 16 23  1  0
 16 24  1  0
 16 25  2  0
 17 18  1  0
 18 23  1  0
 20 21  2  0
 22 24  1  0
M  END
>  <washed_aromatic_smiles>  (432) 
CCNC(=S)NNc1nc(c(nn1)c2ccccc2)c3ccccc3

>  <name>  (432) 
neg111489

$$$$
neg107874
     RDKit          3D

 28 30  0  0  0  0  0  0  0  0999 V2000
    5.3720   12.8340   56.7430 C   0  0  0  0  0  0  0  0  0  0  0  0
    5.0880   11.6090   57.3380 C   0  0  0  0  0  0  0  0  0  0  0  0
    5.3720   12.9460   55.3560 C   0  0  0  0  0  0  0  0  0  0  0  0
    2.8350    2.9770   50.8410 C   0  0  0  0  0  0  0  0  0  0  0  0
    0.6160    2.1920   51.3150 C   0  0  0  0  0  0  0  0  0  0  0  0
    4.7920   10.4980   56.5560 C   0  0  0  0  0  0  0  0  0  0  0  0
    5.0950   11.8420   54.5630 C   0  0  0  0  0  0  0  0  0  0  0  0
    3.2970    1.7120   51.1460 C   0  0  0  0  0  0  0  0  0  0  0  0
    1.0610    0.9420   51.5660 C   0  0  0  0  0  0  0  0  0  0  0  0
    1.4940    3.2540   50.9790 C   0  0  0  0  0  0  0  0  0  0  0  0
    4.7660   10.6120   55.1550 C   0  0  0  0  0  0  0  0  0  0  0  0
    2.3920    0.7160   51.4180 C   0  0  0  0  0  0  0  0  0  0  0  0
    1.5650    6.9080   52.3560 C   0  0  0  0  0  0  0  0  0  0  0  0
    4.0770    8.2040   54.9300 C   0  0  0  0  0  0  0  0  0  0  0  0
    3.5720    9.7910   53.1260 C   0  0  0  0  0  0  0  0  0  0  0  0
    3.5110    7.1680   53.9260 C   0  0  0  0  0  0  0  0  0  0  0  0
    2.1950    9.1000   53.1780 C   0  0  0  0  0  0  0  0  0  0  0  0
    0.9340    0.5720   48.5100 C   0  0  0  0  0  0  0  0  0  0  0  0
    1.1180    4.7360   51.0200 C   0  0  0  0  0  0  0  0  0  0  0  0
    2.1570    5.6390   51.7230 C   0  0  0  0  0  0  0  0  0  0  0  0
    1.1130   -0.9210   48.7880 C   0  0  0  0  0  0  0  0  0  0  0  0
    4.4030    9.5120   54.3240 N   0  0  0  0  0  0  0  0  0  0  0  0
    2.3450    7.6530   53.1640 N   0  0  0  0  0  0  0  0  0  0  0  0
    1.5690   -1.3900   50.1360 N   0  0  0  0  0  0  0  0  0  0  0  0
    0.4170    7.2540   52.0770 O   0  0  0  0  0  0  0  0  0  0  0  0
    4.0870   -0.8890   50.5550 O   0  0  0  0  0  0  0  0  0  0  0  0
    2.7000   -1.5930   52.4190 O   0  0  0  0  0  0  0  0  0  0  0  0
    2.8110   -0.9150   51.1710 S   0  0  0  0  0  0  0  0  0  0  0  0
  1  2  2  0
  1  3  1  0
  2  6  1  0
  3  7  2  0
  4  8  2  0
  4 10  1  0
  5  9  1  0
  5 10  2  0
  6 11  2  0
  7 11  1  0
  8 12  1  0
  9 12  2  0
 10 19  1  0
 11 22  1  0
 12 28  1  0
 13 20  1  0
 13 23  1  0
 13 25  2  0
 14 16  1  0
 14 22  1  0
 15 17  1  0
 15 22  1  0
 16 23  1  0
 17 23  1  0
 18 21  1  0
 19 20  1  0
 21 24  1  0
 24 28  1  0
 26 28  2  0
 27 28  2  0
M  END
>  <washed_aromatic_smiles>  (433) 
CCNS(=O)(=O)c1ccc(cc1)CCC(=O)N2CCN(CC2)c3ccccc3

>  <name>  (433) 
neg107874

$$$$
neg308046
     RDKit          3D

 25 25  0  0  0  0  0  0  0  0999 V2000
    3.2080    4.1260   49.8960 C   0  0  0  0  0  0  0  0  0  0  0  0
    2.6380    4.0470   52.1860 C   0  0  0  0  0  0  0  0  0  0  0  0
    2.8390    3.3550   50.9930 C   0  0  0  0  0  0  0  0  0  0  0  0
    3.3860    5.5110   50.0580 C   0  0  0  0  0  0  0  0  0  0  0  0
    2.4220    5.4340   52.1840 C   0  0  0  0  0  0  0  0  0  0  0  0
    2.9560    6.1850   51.1770 C   0  0  0  0  0  0  0  0  0  0  0  0
    2.7360    1.8930   50.9310 C   0  0  0  0  0  0  0  0  0  0  0  0
    0.5070    1.0760   51.8230 C   0  0  0  0  0  0  0  0  0  0  0  0
    1.4350   -0.1360   49.9430 C   0  0  0  0  0  0  0  0  0  0  0  0
    2.8560    0.7700   54.3940 C   0  0  0  0  0  0  0  0  0  0  0  0
   -0.1710    1.2390   47.0450 C   0  0  0  0  0  0  0  0  0  0  0  0
    3.2310    6.0030   47.9700 C   0  0  0  0  0  0  0  0  0  0  0  0
    0.3120    6.5660   52.4590 C   0  0  0  0  0  0  0  0  0  0  0  0
    3.0780    8.4100   52.4470 C   0  0  0  0  0  0  0  0  0  0  0  0
    2.0260   -0.1530   53.5130 C   0  0  0  0  0  0  0  0  0  0  0  0
    1.0370    0.5650   47.6560 C   0  0  0  0  0  0  0  0  0  0  0  0
    1.4070    1.2160   50.6270 C   0  0  0  0  0  0  0  0  0  0  0  0
    3.6920    1.1980   51.1880 O   0  0  0  0  0  0  0  0  0  0  0  0
   -0.6530    1.4440   51.7440 O   0  0  0  0  0  0  0  0  0  0  0  0
    1.9130   -1.1390   50.4630 O   0  0  0  0  0  0  0  0  0  0  0  0
    3.9040    6.2790   49.1180 O   0  0  0  0  0  0  0  0  0  0  0  0
    1.5790    6.1270   53.0140 O   0  0  0  0  0  0  0  0  0  0  0  0
    3.0260    7.5660   51.2540 O   0  0  0  0  0  0  0  0  0  0  0  0
    0.8550    0.4930   52.9830 O   0  0  0  0  0  0  0  0  0  0  0  0
    0.7920   -0.3100   48.7710 O   0  0  0  0  0  0  0  0  0  0  0  0
  1  3  2  0
  1  4  1  0
  2  3  1  0
  2  5  2  0
  3  7  1  0
  4  6  2  0
  4 21  1  0
  5  6  1  0
  5 22  1  0
  6 23  1  0
  7 17  1  0
  7 18  2  0
  8 17  1  0
  8 19  2  0
  8 24  1  0
  9 17  1  0
  9 20  2  0
  9 25  1  0
 10 15  1  0
 11 16  1  0
 12 21  1  0
 13 22  1  0
 14 23  1  0
 15 24  1  0
 16 25  1  0
M  END
>  <washed_aromatic_smiles>  (434) 
CCOC(=O)C(C(=O)c1cc(c(c(c1)OC)OC)OC)C(=O)OCC

>  <name>  (434) 
neg308046

$$$$
neg262402
     RDKit          3D

 26 28  0  0  0  0  0  0  0  0999 V2000
   -0.9110   -0.1070   48.7980 C   0  0  0  0  0  0  0  0  0  0  0  0
    2.2250    7.7590   53.7320 C   0  0  0  0  0  0  0  0  0  0  0  0
    0.0090    0.4310   47.9160 C   0  0  0  0  0  0  0  0  0  0  0  0
   -0.8480    0.2330   50.1470 C   0  0  0  0  0  0  0  0  0  0  0  0
    1.1400    7.1820   53.0900 C   0  0  0  0  0  0  0  0  0  0  0  0
    3.4650    7.1410   53.6620 C   0  0  0  0  0  0  0  0  0  0  0  0
    1.0050    1.2500   48.4050 C   0  0  0  0  0  0  0  0  0  0  0  0
    0.2010    0.9750   50.6450 C   0  0  0  0  0  0  0  0  0  0  0  0
    1.2950    5.9910   52.3890 C   0  0  0  0  0  0  0  0  0  0  0  0
    3.6200    5.9490   52.9570 C   0  0  0  0  0  0  0  0  0  0  0  0
    1.1480    1.4760   49.7670 C   0  0  0  0  0  0  0  0  0  0  0  0
    2.5430    5.3450   52.3110 C   0  0  0  0  0  0  0  0  0  0  0  0
    1.3840    4.7860   49.4200 C   0  0  0  0  0  0  0  0  0  0  0  0
    3.8140    1.4630   52.0960 C   0  0  0  0  0  0  0  0  0  0  0  0
    2.2350    2.4010   50.2100 C   0  0  1  0  0  0  0  0  0  0  0  0
    2.8000    4.0930   51.4460 C   0  0  2  0  0  0  0  0  0  0  0  0
    1.6830    3.8020   50.4830 C   0  0  1  0  0  0  0  0  0  0  0  0
    2.7750    2.4780   51.6620 C   0  0  2  0  0  0  0  0  0  0  0  0
    3.8030    3.7770   47.4460 C   0  0  0  0  0  0  0  0  0  0  0  0
    1.5830   -0.4650   53.9640 C   0  0  0  0  0  0  0  0  0  0  0  0
    3.5630    5.0310   48.2590 C   0  0  0  0  0  0  0  0  0  0  0  0
    2.9490    0.0970   54.3060 C   0  0  0  0  0  0  0  0  0  0  0  0
    0.3350    5.3260   49.4350 O   0  0  0  0  0  0  0  0  0  0  0  0
    4.7480    1.0400   51.4680 O   0  0  0  0  0  0  0  0  0  0  0  0
    2.2130    5.2000   48.5040 O   0  0  0  0  0  0  0  0  0  0  0  0
    3.4360    0.7890   53.1730 O   0  0  0  0  0  0  0  0  0  0  0  0
  1  3  2  0
  1  4  1  0
  2  5  2  0
  2  6  1  0
  3  7  1  0
  4  8  2  0
  5  9  1  0
  6 10  2  0
  7 11  2  0
  8 11  1  0
  9 12  2  0
 10 12  1  0
 15 11  1  1
 16 12  1  1
 17 13  1  6
 13 23  2  0
 13 25  1  0
 18 14  1  6
 14 24  2  0
 14 26  1  0
 15 17  1  0
 15 18  1  0
 16 17  1  0
 16 18  1  0
 19 21  1  0
 20 22  1  0
 21 25  1  0
 22 26  1  0
M  END
>  <washed_aromatic_smiles>  (435) 
CCOC(=O)C1C(C(C1c2ccccc2)C(=O)OCC)c3ccccc3

>  <name>  (435) 
neg262402

$$$$
neg238371
     RDKit          3D

 30 32  0  0  0  0  0  0  0  0999 V2000
    3.1820   -0.0900   55.1490 C   0  0  0  0  0  0  0  0  0  0  0  0
    3.0000    1.2760   54.9920 C   0  0  0  0  0  0  0  0  0  0  0  0
    3.0040   -0.9320   54.0620 C   0  0  0  0  0  0  0  0  0  0  0  0
    4.7890   10.3160   56.0560 C   0  0  0  0  0  0  0  0  0  0  0  0
    5.0450   12.0650   54.4160 C   0  0  0  0  0  0  0  0  0  0  0  0
    5.1650   11.2060   57.0570 C   0  0  0  0  0  0  0  0  0  0  0  0
    5.3960   12.9530   55.4190 C   0  0  0  0  0  0  0  0  0  0  0  0
    2.7920    1.7920   53.7190 C   0  0  0  0  0  0  0  0  0  0  0  0
    2.6690   -0.4400   52.8230 C   0  0  0  0  0  0  0  0  0  0  0  0
    3.2310    5.9050   50.4400 C   0  0  0  0  0  0  0  0  0  0  0  0
    1.2660    6.0100   51.8120 C   0  0  0  0  0  0  0  0  0  0  0  0
    2.9270    4.5860   50.1020 C   0  0  0  0  0  0  0  0  0  0  0  0
    0.9620    4.7320   51.4180 C   0  0  0  0  0  0  0  0  0  0  0  0
    4.7220   10.7420   54.7230 C   0  0  0  0  0  0  0  0  0  0  0  0
    5.4730   12.5310   56.7450 C   0  0  0  0  0  0  0  0  0  0  0  0
    2.4520    6.5870   51.3880 C   0  0  0  0  0  0  0  0  0  0  0  0
    2.6990    0.9390   52.6300 C   0  0  0  0  0  0  0  0  0  0  0  0
    1.8260    3.9440   50.6690 C   0  0  0  0  0  0  0  0  0  0  0  0
    4.2690    9.8700   53.6520 C   0  0  0  0  0  0  0  0  0  0  0  0
    2.2430    8.6100   52.9090 C   0  0  0  0  0  0  0  0  0  0  0  0
    5.8910   13.5060   57.8270 C   0  0  0  0  0  0  0  0  0  0  0  0
    3.7560    0.6560   50.5830 C   0  0  0  0  0  0  0  0  0  0  0  0
    2.9070    7.8040   51.9650 N   0  0  0  0  0  0  0  0  0  0  0  0
    3.0820    9.1920   53.8730 N   0  0  0  0  0  0  0  0  0  0  0  0
    2.8690    1.4760   51.3520 N   0  0  0  0  0  0  0  0  0  0  0  0
    4.8390    9.8120   52.5760 O   0  0  0  0  0  0  0  0  0  0  0  0
    0.3780    1.7580   51.1960 O   0  0  0  0  0  0  0  0  0  0  0  0
    1.6370    1.8110   49.1350 O   0  0  0  0  0  0  0  0  0  0  0  0
    0.5860    8.9040   52.9760 S   0  0  0  0  0  0  0  0  0  0  0  0
    1.5660    2.1480   50.5170 S   0  0  0  0  0  0  0  0  0  0  0  0
  1  2  2  0
  1  3  1  0
  2  8  1  0
  3  9  2  0
  4  6  2  0
  4 14  1  0
  5  7  1  0
  5 14  2  0
  6 15  1  0
  7 15  2  0
  8 17  2  0
  9 17  1  0
 10 12  2  0
 10 16  1  0
 11 13  1  0
 11 16  2  0
 12 18  1  0
 13 18  2  0
 14 19  1  0
 15 21  1  0
 16 23  1  0
 17 25  1  0
 18 30  1  0
 19 24  1  0
 19 26  2  0
 20 23  1  0
 20 24  1  0
 20 29  2  0
 22 25  1  0
 25 30  1  0
 27 30  2  0
 28 30  2  0
M  END
>  <washed_aromatic_smiles>  (436) 
Cc1ccc(cc1)C(=O)NC(=S)Nc2ccc(cc2)S(=O)(=O)N(C)c3ccccc3

>  <name>  (436) 
neg238371

$$$$
neg63674
     RDKit          3D

 26 28  0  0  0  0  0  0  0  0999 V2000
    4.9310   10.5900   58.6580 C   0  0  0  0  0  0  0  0  0  0  0  0
    4.5670   11.3690   56.4140 C   0  0  0  0  0  0  0  0  0  0  0  0
    5.5270   11.7990   58.9770 C   0  0  0  0  0  0  0  0  0  0  0  0
    5.1960   12.5710   56.7290 C   0  0  0  0  0  0  0  0  0  0  0  0
    1.5110    3.2060   48.5870 C   0  0  0  0  0  0  0  0  0  0  0  0
    1.9970    2.1730   50.7100 C   0  0  0  0  0  0  0  0  0  0  0  0
    1.9280    4.4370   49.0830 C   0  0  0  0  0  0  0  0  0  0  0  0
    2.4160    3.3990   51.2150 C   0  0  0  0  0  0  0  0  0  0  0  0
    4.4080   10.3710   57.3850 C   0  0  0  0  0  0  0  0  0  0  0  0
    5.6700   12.7960   58.0200 C   0  0  0  0  0  0  0  0  0  0  0  0
    1.5180    2.0730   49.4030 C   0  0  0  0  0  0  0  0  0  0  0  0
    2.3340    4.5390   50.4160 C   0  0  0  0  0  0  0  0  0  0  0  0
    3.7430    9.1060   57.0990 C   0  0  0  0  0  0  0  0  0  0  0  0
    1.7020    6.4620   51.8180 C   0  0  0  0  0  0  0  0  0  0  0  0
    3.4430    7.7300   54.5510 C   0  0  0  0  0  0  0  0  0  0  0  0
    1.1020    8.3960   54.4690 C   0  0  0  0  0  0  0  0  0  0  0  0
    3.4470    7.6600   53.0320 C   0  0  0  0  0  0  0  0  0  0  0  0
    1.1510    8.5710   52.9530 C   0  0  0  0  0  0  0  0  0  0  0  0
    2.4750    8.8000   55.0350 C   0  0  0  0  0  0  0  0  0  0  0  0
    6.3480   14.0920   58.4040 C   0  0  0  0  0  0  0  0  0  0  0  0
    0.9670    0.7570   48.8940 C   0  0  0  0  0  0  0  0  0  0  0  0
    2.1470    7.6600   52.3650 N   0  0  0  0  0  0  0  0  0  0  0  0
    2.6240    5.7990   50.9840 N   0  0  0  0  0  0  0  0  0  0  0  0
    2.5260    9.1210   56.4640 N   0  0  0  0  0  0  0  0  0  0  0  0
    4.2320    8.0230   57.4090 O   0  0  0  0  0  0  0  0  0  0  0  0
    0.1630    5.8870   52.1220 S   0  0  0  0  0  0  0  0  0  0  0  0
  1  3  2  0
  1  9  1  0
  2  4  1  0
  2  9  2  0
  3 10  1  0
  4 10  2  0
  5  7  2  0
  5 11  1  0
  6  8  1  0
  6 11  2  0
  7 12  1  0
  8 12  2  0
  9 13  1  0
 10 20  1  0
 11 21  1  0
 12 23  1  0
 13 24  1  0
 13 25  2  0
 14 22  1  0
 14 23  1  0
 14 26  2  0
 15 17  1  0
 15 19  1  0
 16 18  1  0
 16 19  1  0
 17 22  1  0
 18 22  1  0
 19 24  1  0
M  END
>  <washed_aromatic_smiles>  (437) 
Cc1ccc(cc1)C(=O)NC2CCN(CC2)C(=S)Nc3ccc(cc3)C

>  <name>  (437) 
neg63674

$$$$
neg100901
     RDKit          3D

 26 27  0  0  0  0  0  0  0  0999 V2000
    1.5160    1.6380   49.2730 C   0  0  0  0  0  0  0  0  0  0  0  0
    0.8840    3.1580   47.5230 C   0  0  0  0  0  0  0  0  0  0  0  0
    3.8060    6.6820   53.2330 C   0  0  0  0  0  0  0  0  0  0  0  0
    1.5730    7.5510   53.4540 C   0  0  0  0  0  0  0  0  0  0  0  0
    1.2090    0.5670   48.4400 C   0  0  0  0  0  0  0  0  0  0  0  0
    0.5260    2.0940   46.7260 C   0  0  0  0  0  0  0  0  0  0  0  0
    4.3100    7.7430   53.9460 C   0  0  0  0  0  0  0  0  0  0  0  0
    2.0580    8.5540   54.2800 C   0  0  0  0  0  0  0  0  0  0  0  0
    1.4570    2.9390   48.7610 C   0  0  0  0  0  0  0  0  0  0  0  0
    2.4600    6.6080   52.9230 C   0  0  0  0  0  0  0  0  0  0  0  0
    0.8710    0.8250   47.1140 C   0  0  0  0  0  0  0  0  0  0  0  0
    3.4320    8.6500   54.5210 C   0  0  0  0  0  0  0  0  0  0  0  0
    1.9790    4.0960   49.4340 C   0  0  0  0  0  0  0  0  0  0  0  0
    2.0890    5.5460   52.0350 C   0  0  0  0  0  0  0  0  0  0  0  0
    4.9790    9.4990   56.2600 C   0  0  0  0  0  0  0  0  0  0  0  0
    1.1710   -0.0770   45.9620 C   0  0  0  0  0  0  0  0  0  0  0  0
    5.5570   11.8410   57.0560 C   0  0  0  0  0  0  0  0  0  0  0  0
    5.7170    9.7500   58.6460 C   0  0  0  0  0  0  0  0  0  0  0  0
    3.6010   10.6660   57.9140 C   0  0  0  0  0  0  0  0  0  0  0  0
    5.0130   10.4430   57.4440 C   0  0  0  0  0  0  0  0  0  0  0  0
    3.9070    9.6360   55.3940 N   0  0  0  0  0  0  0  0  0  0  0  0
    1.0390    4.9400   49.9320 N   0  0  0  0  0  0  0  0  0  0  0  0
    1.3080    5.8820   50.9810 N   0  0  0  0  0  0  0  0  0  0  0  0
    3.1820    4.3540   49.5010 O   0  0  0  0  0  0  0  0  0  0  0  0
    2.5240    4.3970   52.1620 O   0  0  0  0  0  0  0  0  0  0  0  0
    5.8040    8.6160   56.1350 O   0  0  0  0  0  0  0  0  0  0  0  0
  1  5  2  0
  1  9  1  0
  2  6  1  0
  2  9  2  0
  3  7  2  0
  3 10  1  0
  4  8  1  0
  4 10  2  0
  5 11  1  0
  6 11  2  0
  7 12  1  0
  8 12  2  0
  9 13  1  0
 10 14  1  0
 11 16  1  0
 12 21  1  0
 13 22  1  0
 13 24  2  0
 14 23  1  0
 14 25  2  0
 15 20  1  0
 15 21  1  0
 15 26  2  0
 17 20  1  0
 18 20  1  0
 19 20  1  0
 22 23  1  0
M  END
>  <washed_aromatic_smiles>  (438) 
Cc1ccc(cc1)C(=O)NNC(=O)c2ccc(cc2)NC(=O)C(C)(C)C

>  <name>  (438) 
neg100901

$$$$
neg234366
     RDKit          3D

 25 27  0  0  0  0  0  0  0  0999 V2000
    5.3490    8.7600   59.0780 C   0  0  0  0  0  0  0  0  0  0  0  0
    5.0850    7.5030   58.5360 C   0  0  0  0  0  0  0  0  0  0  0  0
    2.5400    4.8970   51.6470 C   0  0  0  0  0  0  0  0  0  0  0  0
    3.2190    6.6160   50.1370 C   0  0  0  0  0  0  0  0  0  0  0  0
    2.4690    3.9910   50.6000 C   0  0  0  0  0  0  0  0  0  0  0  0
    3.1840    5.7050   49.0890 C   0  0  0  0  0  0  0  0  0  0  0  0
    5.3350    9.8930   58.2710 C   0  0  0  0  0  0  0  0  0  0  0  0
    4.7810    7.3770   57.1890 C   0  0  0  0  0  0  0  0  0  0  0  0
    2.8730    6.2390   51.4400 C   0  0  0  0  0  0  0  0  0  0  0  0
    2.7780    4.3970   49.3090 C   0  0  0  0  0  0  0  0  0  0  0  0
    5.0790    9.7770   56.9040 C   0  0  0  0  0  0  0  0  0  0  0  0
    4.7620    8.5160   56.3810 C   0  0  0  0  0  0  0  0  0  0  0  0
    4.9010   10.7930   54.8000 C   0  0  0  0  0  0  0  0  0  0  0  0
    4.3320    9.5760   54.2330 C   0  0  0  0  0  0  0  0  0  0  0  0
    2.8730    7.1950   52.5640 C   0  0  0  0  0  0  0  0  0  0  0  0
    2.6500    3.4410   48.1550 C   0  0  0  0  0  0  0  0  0  0  0  0
    5.2170   11.9790   53.8850 C   0  0  0  0  0  0  0  0  0  0  0  0
    5.2120   10.8910   56.0460 N   0  0  0  0  0  0  0  0  0  0  0  0
    4.4250    8.4190   55.0310 N   0  0  0  0  0  0  0  0  0  0  0  0
    3.7730    9.5400   53.0640 N   0  0  0  0  0  0  0  0  0  0  0  0
    3.1570    8.5280   52.2970 N   0  0  0  0  0  0  0  0  0  0  0  0
    2.6100    6.8730   53.7170 O   0  0  0  0  0  0  0  0  0  0  0  0
    6.1960   11.6850   53.0150 F   0  0  0  0  0  0  0  0  0  0  0  0
    4.1960   12.4010   53.1500 F   0  0  0  0  0  0  0  0  0  0  0  0
    5.6360   13.0640   54.5600 F   0  0  0  0  0  0  0  0  0  0  0  0
  1  2  2  0
  1  7  1  0
  2  8  1  0
  3  5  2  0
  3  9  1  0
  4  6  1  0
  4  9  2  0
  5 10  1  0
  6 10  2  0
  7 11  2  0
  8 12  2  0
  9 15  1  0
 10 16  1  0
 11 12  1  0
 11 18  1  0
 12 19  1  0
 13 14  1  0
 13 17  1  0
 13 18  2  0
 14 19  1  0
 14 20  2  0
 15 21  1  0
 15 22  2  0
 17 23  1  0
 17 24  1  0
 17 25  1  0
 20 21  1  0
M  END
>  <washed_aromatic_smiles>  (439) 
Cc1ccc(cc1)C(=O)NNc2c(nc3ccccc3n2)C(F)(F)F

>  <name>  (439) 
neg234366

$$$$
neg226191
     RDKit          3D

 36 39  0  0  0  0  0  0  0  0999 V2000
    3.3560    5.6340   52.9550 C   0  0  0  0  0  0  0  0  0  0  0  0
    3.0860    8.0020   54.5070 C   0  0  0  0  0  0  0  0  0  0  0  0
    0.9880   -0.0390   50.1180 C   0  0  0  0  0  0  0  0  0  0  0  0
    0.7570    1.8080   48.5840 C   0  0  0  0  0  0  0  0  0  0  0  0
    6.0550   13.2260   57.3150 C   0  0  0  0  0  0  0  0  0  0  0  0
    5.0910   11.9200   59.0730 C   0  0  0  0  0  0  0  0  0  0  0  0
    1.0840   -0.8770   49.0450 C   0  0  0  0  0  0  0  0  0  0  0  0
    0.8090    0.9400   47.5100 C   0  0  0  0  0  0  0  0  0  0  0  0
    6.7160   13.9960   58.2710 C   0  0  0  0  0  0  0  0  0  0  0  0
    5.6650   12.7630   60.0060 C   0  0  0  0  0  0  0  0  0  0  0  0
    2.9420    4.4400   52.4050 C   0  0  0  0  0  0  0  0  0  0  0  0
    3.5740    8.9730   55.3630 C   0  0  0  0  0  0  0  0  0  0  0  0
    2.8760    6.8010   50.9510 C   0  0  0  0  0  0  0  0  0  0  0  0
    3.9300    9.2040   52.6080 C   0  0  0  0  0  0  0  0  0  0  0  0
    3.1430    6.8510   52.3240 C   0  0  0  0  0  0  0  0  0  0  0  0
    3.3460    8.0510   53.1310 C   0  0  0  0  0  0  0  0  0  0  0  0
    1.0160    1.3180   49.8790 C   0  0  0  0  0  0  0  0  0  0  0  0
    5.2100   12.1950   57.7220 C   0  0  0  0  0  0  0  0  0  0  0  0
    1.1050   -0.3940   47.7520 C   0  0  0  0  0  0  0  0  0  0  0  0
    6.5090   13.7890   59.6230 C   0  0  0  0  0  0  0  0  0  0  0  0
    2.3730    4.4640   51.1590 C   0  0  0  0  0  0  0  0  0  0  0  0
    4.2790   10.0530   54.8310 C   0  0  0  0  0  0  0  0  0  0  0  0
    2.4930    5.5940   50.3830 C   0  0  0  0  0  0  0  0  0  0  0  0
    4.4100   10.1890   53.4530 C   0  0  0  0  0  0  0  0  0  0  0  0
    1.5680    2.1290   50.9270 C   0  0  0  0  0  0  0  0  0  0  0  0
    4.3630   11.4530   56.8190 C   0  0  0  0  0  0  0  0  0  0  0  0
    1.6570   -1.2750   46.6700 C   0  0  0  0  0  0  0  0  0  0  0  0
    7.1510   14.6890   60.6550 C   0  0  0  0  0  0  0  0  0  0  0  0
    3.4790    5.0650   48.3440 C   0  0  0  0  0  0  0  0  0  0  0  0
    6.3550   11.0180   52.4130 C   0  0  0  0  0  0  0  0  0  0  0  0
    1.6530    3.4340   50.5960 N   0  0  0  0  0  0  0  0  0  0  0  0
    4.9050   11.0030   55.6530 N   0  0  0  0  0  0  0  0  0  0  0  0
    2.0570    1.6750   51.9580 O   0  0  0  0  0  0  0  0  0  0  0  0
    3.1900   11.2050   57.0700 O   0  0  0  0  0  0  0  0  0  0  0  0
    2.3120    5.3980   49.0520 O   0  0  0  0  0  0  0  0  0  0  0  0
    5.0620   11.2810   52.9500 O   0  0  0  0  0  0  0  0  0  0  0  0
  1 11  2  0
  1 15  1  0
  2 12  2  0
  2 16  1  0
  3  7  2  0
  3 17  1  0
  4  8  1  0
  4 17  2  0
  5  9  2  0
  5 18  1  0
  6 10  1  0
  6 18  2  0
  7 19  1  0
  8 19  2  0
  9 20  1  0
 10 20  2  0
 11 21  1  0
 12 22  1  0
 13 15  2  0
 13 23  1  0
 14 16  2  0
 14 24  1  0
 15 16  1  0
 17 25  1  0
 18 26  1  0
 19 27  1  0
 20 28  1  0
 21 23  2  0
 21 31  1  0
 22 24  2  0
 22 32  1  0
 23 35  1  0
 24 36  1  0
 25 31  1  0
 25 33  2  0
 26 32  1  0
 26 34  2  0
 29 35  1  0
 30 36  1  0
M  END
>  <washed_aromatic_smiles>  (440) 
Cc1ccc(cc1)C(=O)Nc2ccc(cc2OC)c3ccc(c(c3)OC)NC(=O)c4ccc(cc4)C

>  <name>  (440) 
neg226191

$$$$
neg34161
     RDKit          3D

 27 29  0  0  0  0  0  0  0  0999 V2000
    2.5060    3.8950   51.6930 C   0  0  0  0  0  0  0  0  0  0  0  0
    1.5770   -0.5330   54.0920 C   0  0  0  0  0  0  0  0  0  0  0  0
    3.0960    1.2700   53.8510 C   0  0  0  0  0  0  0  0  0  0  0  0
    2.7720    5.0880   51.1280 C   0  0  0  0  0  0  0  0  0  0  0  0
    2.2690   -0.9090   55.2060 C   0  0  0  0  0  0  0  0  0  0  0  0
    3.7520    0.8700   55.0100 C   0  0  0  0  0  0  0  0  0  0  0  0
    2.4880    4.1450   48.8890 C   0  0  0  0  0  0  0  0  0  0  0  0
    2.1530    2.8090   50.8620 C   0  0  0  0  0  0  0  0  0  0  0  0
    1.9930    0.5700   53.3960 C   0  0  0  0  0  0  0  0  0  0  0  0
    3.4470   -0.3080   55.6140 C   0  0  0  0  0  0  0  0  0  0  0  0
    2.8080    5.1840   49.7190 C   0  0  0  0  0  0  0  0  0  0  0  0
    2.1680    2.9180   49.4800 C   0  0  0  0  0  0  0  0  0  0  0  0
    1.7230    1.5470   51.1260 C   0  0  0  0  0  0  0  0  0  0  0  0
    1.1850    0.9900   52.3030 C   0  0  0  0  0  0  0  0  0  0  0  0
   -1.1620   -0.1490   49.0030 C   0  0  0  0  0  0  0  0  0  0  0  0
    4.4460   -0.7890   56.6720 C   0  0  0  0  0  0  0  0  0  0  0  0
    0.2440   -0.5360   48.5970 C   0  0  0  0  0  0  0  0  0  0  0  0
    1.2410   -0.4170   49.7340 C   0  0  0  0  0  0  0  0  0  0  0  0
    3.5850    6.3120   49.2230 C   0  0  0  0  0  0  0  0  0  0  0  0
    1.8930    1.7640   48.9030 N   0  0  0  0  0  0  0  0  0  0  0  0
    1.6460    0.9510   49.9280 N   0  0  0  0  0  0  0  0  0  0  0  0
   -1.3750    0.3520   50.2130 N   0  0  0  0  0  0  0  0  0  0  0  0
   -0.0200    0.9210   52.4360 O   0  0  0  0  0  0  0  0  0  0  0  0
   -2.1210   -0.4220   48.3130 O   0  0  0  0  0  0  0  0  0  0  0  0
    3.4090    6.5650   47.9510 F   0  0  0  0  0  0  0  0  0  0  0  0
    3.4100    7.4280   49.9040 F   0  0  0  0  0  0  0  0  0  0  0  0
    4.8150    5.9260   49.4000 F   0  0  0  0  0  0  0  0  0  0  0  0
  1  4  2  0
  1  8  1  0
  2  5  2  0
  2  9  1  0
  3  6  1  0
  3  9  2  0
  4 11  1  0
  5 10  1  0
  6 10  2  0
  7 11  2  0
  7 12  1  0
  8 12  1  0
  8 13  2  0
  9 14  1  0
 10 16  1  0
 11 19  1  0
 12 20  2  0
 13 14  1  0
 13 21  1  0
 14 23  2  0
 15 17  1  0
 15 22  1  0
 15 24  2  0
 17 18  1  0
 18 21  1  0
 19 25  1  0
 19 26  1  0
 19 27  1  0
 20 21  1  0
M  END
>  <washed_aromatic_smiles>  (441) 
Cc1ccc(cc1)C(=O)c2c3ccc(cc3nn2CCC(=O)N)C(F)(F)F

>  <name>  (441) 
neg34161

$$$$
neg5908
     RDKit          3D

 26 28  0  0  0  0  0  0  0  0999 V2000
    3.3110   -0.4380   55.3670 C   0  0  0  0  0  0  0  0  0  0  0  0
    3.1540    0.8970   55.6810 C   0  0  0  0  0  0  0  0  0  0  0  0
    3.1170   -0.8520   54.0670 C   0  0  0  0  0  0  0  0  0  0  0  0
    2.8920    1.8080   54.6780 C   0  0  0  0  0  0  0  0  0  0  0  0
    0.4670    0.5120   51.3740 C   0  0  0  0  0  0  0  0  0  0  0  0
    1.5140   -0.9340   49.7830 C   0  0  0  0  0  0  0  0  0  0  0  0
   -0.6410    0.5970   50.5410 C   0  0  0  0  0  0  0  0  0  0  0  0
    0.4670   -0.7790   48.9210 C   0  0  0  0  0  0  0  0  0  0  0  0
    1.5660   -0.2670   50.9850 C   0  0  0  0  0  0  0  0  0  0  0  0
    2.9140    0.0790   53.0550 C   0  0  0  0  0  0  0  0  0  0  0  0
    2.8930    1.4570   53.3210 C   0  0  0  0  0  0  0  0  0  0  0  0
   -0.6540   -0.0790   49.3230 C   0  0  0  0  0  0  0  0  0  0  0  0
    2.8040   -0.3970   51.7180 C   0  0  0  0  0  0  0  0  0  0  0  0
    2.9480    2.4340   52.1900 C   0  0  0  0  0  0  0  0  0  0  0  0
    2.6200    5.9630   51.1310 C   0  0  0  0  0  0  0  0  0  0  0  0
    0.8500    7.9670   53.6610 C   0  0  0  0  0  0  0  0  0  0  0  0
    1.9130    8.9380   53.1640 C   0  0  0  0  0  0  0  0  0  0  0  0
    0.8130    6.8990   52.5740 C   0  0  0  0  0  0  0  0  0  0  0  0
    2.8940    8.0490   52.4140 C   0  0  0  0  0  0  0  0  0  0  0  0
   -1.9340   -0.3740   48.5830 C   0  0  0  0  0  0  0  0  0  0  0  0
    2.1030    4.5530   51.2260 C   0  0  0  0  0  0  0  0  0  0  0  0
    2.1520    6.8710   52.0070 N   0  0  0  0  0  0  0  0  0  0  0  0
    3.8210   -0.7550   51.1550 O   0  0  0  0  0  0  0  0  0  0  0  0
    3.1740    2.1160   51.0380 O   0  0  0  0  0  0  0  0  0  0  0  0
    3.4970    6.2210   50.3120 O   0  0  0  0  0  0  0  0  0  0  0  0
    2.7440    3.7670   52.3410 O   0  0  0  0  0  0  0  0  0  0  0  0
  1  2  2  0
  1  3  1  0
  2  4  1  0
  3 10  2  0
  4 11  2  0
  5  7  2  0
  5  9  1  0
  6  8  1  0
  6  9  2  0
  7 12  1  0
  8 12  2  0
  9 13  1  0
 10 11  1  0
 10 13  1  0
 11 14  1  0
 12 20  1  0
 13 23  2  0
 14 24  2  0
 14 26  1  0
 15 21  1  0
 15 22  1  0
 15 25  2  0
 16 17  1  0
 16 18  1  0
 17 19  1  0
 18 22  1  0
 19 22  1  0
 21 26  1  0
M  END
>  <washed_aromatic_smiles>  (442) 
Cc1ccc(cc1)C(=O)c2ccccc2C(=O)OCC(=O)N3CCCC3

>  <name>  (442) 
neg5908

$$$$
neg212351
     RDKit          3D

 25 28  0  0  0  0  0  0  0  0999 V2000
    2.4810    5.5540   50.9690 C   0  0  0  0  0  0  0  0  0  0  0  0
    0.3890    5.4370   52.0970 C   0  0  0  0  0  0  0  0  0  0  0  0
    2.6200    6.8690   51.3960 C   0  0  0  0  0  0  0  0  0  0  0  0
    0.5530    6.7420   52.5450 C   0  0  0  0  0  0  0  0  0  0  0  0
    1.3790    4.7790   51.3550 C   0  0  0  0  0  0  0  0  0  0  0  0
    1.7000    7.4460   52.2530 C   0  0  0  0  0  0  0  0  0  0  0  0
    0.8970    1.0980   52.4380 C   0  0  0  0  0  0  0  0  0  0  0  0
    3.0860    2.2360   51.8820 C   0  0  0  0  0  0  0  0  0  0  0  0
    0.2680    1.0890   50.2760 C   0  0  0  0  0  0  0  0  0  0  0  0
    2.4330    1.8690   49.4490 C   0  0  0  0  0  0  0  0  0  0  0  0
    1.3070    3.2980   50.8370 C   0  0  2  0  0  0  0  0  0  0  0  0
    2.4040    0.9230   52.3240 C   0  0  2  0  0  0  0  0  0  0  0  0
    1.6500    0.5930   49.8450 C   0  0  1  0  0  0  0  0  0  0  0  0
    2.5710   -0.0460   51.1080 C   0  0  0  0  0  0  0  0  0  0  0  0
    1.9060    8.8260   52.8400 C   0  0  0  0  0  0  0  0  0  0  0  0
    2.2370   -1.4390   51.6110 C   0  0  0  0  0  0  0  0  0  0  0  0
    4.0870   -0.1700   50.8120 C   0  0  0  0  0  0  0  0  0  0  0  0
    0.3840    1.9890   51.3680 N   0  0  0  0  0  0  0  0  0  0  0  0
    2.6010    2.7900   50.5900 N   0  0  0  0  0  0  0  0  0  0  0  0
    2.8940    0.5560   53.7180 N   0  0  0  0  0  0  0  0  0  0  0  0
    1.2270   -0.1930   48.6630 N   0  0  0  0  0  0  0  0  0  0  0  0
    2.8790    1.4180   54.5720 O   0  0  0  0  0  0  0  0  0  0  0  0
    0.8900   -1.3350   48.8010 O   0  0  0  0  0  0  0  0  0  0  0  0
    3.1900   -0.5680   54.0670 O   0  0  0  0  0  0  0  0  0  0  0  0
    1.0890    0.3340   47.5770 O   0  0  0  0  0  0  0  0  0  0  0  0
  1  3  2  0
  1  5  1  0
  2  4  1  0
  2  5  2  0
  3  6  1  0
  4  6  2  0
 11  5  1  1
  6 15  1  0
  7 12  1  0
  7 18  1  0
  8 12  1  0
  8 19  1  0
  9 13  1  0
  9 18  1  0
 10 13  1  0
 10 19  1  0
 11 18  1  0
 11 19  1  0
 12 14  1  0
 12 20  1  1
 13 14  1  0
 13 21  1  6
 14 16  1  0
 14 17  1  0
 20 22  1  0
 20 24  2  0
 21 23  1  0
 21 25  2  0
M  CHG  4  20   1  21   1  22  -1  23  -1
M  END
>  <washed_aromatic_smiles>  (443) 
Cc1ccc(cc1)C2N3CC4(CN2CC(C3)(C4(C)C)[N+](=O)[O-])[N+](=O)[O-]

>  <name>  (443) 
neg212351

$$$$
neg24572
     RDKit          3D

 28 30  0  0  0  0  0  0  0  0999 V2000
    4.6450    9.1290   55.1100 C   0  0  0  0  0  0  0  0  0  0  0  0
    2.2850    8.7680   55.3310 C   0  0  0  0  0  0  0  0  0  0  0  0
    4.7100    8.0870   54.1950 C   0  0  0  0  0  0  0  0  0  0  0  0
    2.3470    7.7370   54.3980 C   0  0  0  0  0  0  0  0  0  0  0  0
    2.0180    4.6250   49.0170 C   0  0  0  0  0  0  0  0  0  0  0  0
    1.3140    3.9640   48.0220 C   0  0  0  0  0  0  0  0  0  0  0  0
    1.9670    2.6130   50.3380 C   0  0  0  0  0  0  0  0  0  0  0  0
    3.4350    9.4620   55.7050 C   0  0  0  0  0  0  0  0  0  0  0  0
    3.5680    7.3600   53.8490 C   0  0  0  0  0  0  0  0  0  0  0  0
    2.2880    3.9540   50.1990 C   0  0  0  0  0  0  0  0  0  0  0  0
    0.9090    2.6360   48.1970 C   0  0  0  0  0  0  0  0  0  0  0  0
    1.2250    1.9410   49.3670 C   0  0  0  0  0  0  0  0  0  0  0  0
    2.7390    5.8200   51.8410 C   0  0  0  0  0  0  0  0  0  0  0  0
    2.5640   -0.4350   53.8840 C   0  0  0  0  0  0  0  0  0  0  0  0
    2.6050   -1.3820   52.6840 C   0  0  0  0  0  0  0  0  0  0  0  0
    1.7160    0.7740   53.5130 C   0  0  0  0  0  0  0  0  0  0  0  0
    2.5510   -0.6830   51.3270 C   0  0  0  0  0  0  0  0  0  0  0  0
    0.6760    0.4900   52.4000 C   0  0  0  0  0  0  0  0  0  0  0  0
    3.3970   10.5400   56.7660 C   0  0  0  0  0  0  0  0  0  0  0  0
    0.6790    1.2560   46.1600 C   0  0  0  0  0  0  0  0  0  0  0  0
    3.6830    6.0960   53.0000 C   0  0  0  0  0  0  0  0  0  0  0  0
    1.2350   -0.0910   51.1760 N   0  0  0  0  0  0  0  0  0  0  0  0
    2.8980    4.5620   51.3150 N   0  0  0  0  0  0  0  0  0  0  0  0
    1.8910    6.5800   51.4240 O   0  0  0  0  0  0  0  0  0  0  0  0
   -0.8180    0.3760   49.8470 O   0  0  0  0  0  0  0  0  0  0  0  0
    1.0680   -0.6160   48.7190 O   0  0  0  0  0  0  0  0  0  0  0  0
    0.1180    2.0430   47.2330 O   0  0  0  0  0  0  0  0  0  0  0  0
    0.5910    0.2910   49.7060 S   0  0  0  0  0  0  0  0  0  0  0  0
  1  3  2  0
  1  8  1  0
  2  4  1  0
  2  8  2  0
  3  9  1  0
  4  9  2  0
  5  6  2  0
  5 10  1  0
  6 11  1  0
  7 10  2  0
  7 12  1  0
  8 19  1  0
  9 21  1  0
 10 23  1  0
 11 12  2  0
 11 27  1  0
 12 28  1  0
 13 21  1  0
 13 23  1  0
 13 24  2  0
 14 15  1  0
 14 16  1  0
 15 17  1  0
 16 18  1  0
 17 22  1  0
 18 22  1  0
 20 27  1  0
 22 28  1  0
 25 28  2  0
 26 28  2  0
M  END
>  <washed_aromatic_smiles>  (444) 
Cc1ccc(cc1)CC(=O)Nc2ccc(c(c2)S(=O)(=O)N3CCCCC3)OC

>  <name>  (444) 
neg24572

$$$$
neg103050
     RDKit          3D

 27 29  0  0  0  0  0  0  0  0999 V2000
    6.1340    9.3590   54.0850 C   0  0  0  0  0  0  0  0  0  0  0  0
    4.6330   10.8870   52.9950 C   0  0  0  0  0  0  0  0  0  0  0  0
    5.0640    8.7150   54.6810 C   0  0  0  0  0  0  0  0  0  0  0  0
    3.5830   10.1400   53.4430 C   0  0  0  0  0  0  0  0  0  0  0  0
    0.5870    5.9470   51.0510 C   0  0  0  0  0  0  0  0  0  0  0  0
    2.5090    4.8930   52.0660 C   0  0  0  0  0  0  0  0  0  0  0  0
    0.7910    5.1860   49.9190 C   0  0  0  0  0  0  0  0  0  0  0  0
    2.6250    4.0760   50.9670 C   0  0  0  0  0  0  0  0  0  0  0  0
    2.6970   -0.0740   52.5610 C   0  0  0  0  0  0  0  0  0  0  0  0
    3.5460    0.5030   51.6720 C   0  0  0  0  0  0  0  0  0  0  0  0
    1.3100   -0.1610   52.2440 C   0  0  0  0  0  0  0  0  0  0  0  0
    5.9040   10.4370   53.2340 C   0  0  0  0  0  0  0  0  0  0  0  0
    3.7810    9.0810   54.3080 C   0  0  0  0  0  0  0  0  0  0  0  0
    1.4390    5.7790   52.1170 C   0  0  0  0  0  0  0  0  0  0  0  0
    1.7480    4.1940   49.9040 C   0  0  0  0  0  0  0  0  0  0  0  0
    1.6520    1.0120   50.2520 C   0  0  0  0  0  0  0  0  0  0  0  0
    2.2440    7.6230   53.2180 C   0  0  0  0  0  0  0  0  0  0  0  0
    6.9280   11.1350   52.4410 C   0  0  0  0  0  0  0  0  0  0  0  0
    2.5960    8.2190   54.5530 C   0  0  0  0  0  0  0  0  0  0  0  0
    3.0230    1.0070   50.5120 N   0  0  0  0  0  0  0  0  0  0  0  0
    0.8230    0.3170   51.1540 N   0  0  0  0  0  0  0  0  0  0  0  0
    1.3270    6.6450   53.1860 N   0  0  0  0  0  0  0  0  0  0  0  0
    1.1660    1.6950   49.2860 N   0  0  0  0  0  0  0  0  0  0  0  0
    2.8120    7.9000   52.1700 O   0  0  0  0  0  0  0  0  0  0  0  0
    3.2350    2.8500   48.3420 O   0  0  0  0  0  0  0  0  0  0  0  0
    1.0560    3.4510   47.5010 O   0  0  0  0  0  0  0  0  0  0  0  0
    1.8520    3.0210   48.5960 S   0  0  0  0  0  0  0  0  0  0  0  0
  1  3  2  0
  1 12  1  0
  2  4  1  0
  2 12  2  0
  3 13  1  0
  4 13  2  0
  5  7  2  0
  5 14  1  0
  6  8  1  0
  6 14  2  0
  7 15  1  0
  8 15  2  0
  9 10  2  0
  9 11  1  0
 10 20  1  0
 11 21  2  0
 12 18  1  0
 13 19  1  0
 14 22  1  0
 15 27  1  0
 16 20  1  0
 16 21  1  0
 16 23  2  0
 17 19  1  0
 17 22  1  0
 17 24  2  0
 23 27  1  0
 25 27  2  0
 26 27  2  0
M  END
>  <washed_aromatic_smiles>  (445) 
Cc1ccc(cc1)CC(=O)Nc2ccc(cc2)S(=O)(=O)Nc3ncccn3

>  <name>  (445) 
neg103050

$$$$
neg177540
     RDKit          3D

 25 27  0  0  0  0  0  0  0  0999 V2000
    2.8890    9.3840   56.3430 C   0  0  0  0  0  0  0  0  0  0  0  0
    4.5190    9.9540   54.6690 C   0  0  0  0  0  0  0  0  0  0  0  0
    2.0220    8.9520   55.3470 C   0  0  0  0  0  0  0  0  0  0  0  0
    3.6480    9.5190   53.6720 C   0  0  0  0  0  0  0  0  0  0  0  0
    1.8050    2.8880   48.7890 C   0  0  0  0  0  0  0  0  0  0  0  0
    0.3930    0.9720   49.3070 C   0  0  0  0  0  0  0  0  0  0  0  0
    1.4790    2.7610   47.4640 C   0  0  0  0  0  0  0  0  0  0  0  0
    0.1030    0.8220   47.9630 C   0  0  0  0  0  0  0  0  0  0  0  0
    4.1400    9.8950   56.0090 C   0  0  0  0  0  0  0  0  0  0  0  0
    2.3910    9.0150   54.0090 C   0  0  0  0  0  0  0  0  0  0  0  0
    1.2070    2.0320   49.7060 C   0  0  0  0  0  0  0  0  0  0  0  0
    0.6270    1.7380   47.0570 C   0  0  0  0  0  0  0  0  0  0  0  0
    2.4350    2.9230   51.5930 C   0  0  0  0  0  0  0  0  0  0  0  0
    1.4070    5.2140   50.8680 C   0  0  0  0  0  0  0  0  0  0  0  0
    3.3820    5.2420   52.2630 C   0  0  0  0  0  0  0  0  0  0  0  0
    0.8380    6.3950   51.6750 C   0  0  0  0  0  0  0  0  0  0  0  0
    2.9300    6.5410   52.9200 C   0  0  0  0  0  0  0  0  0  0  0  0
    5.0700   10.3790   57.0990 C   0  0  0  0  0  0  0  0  0  0  0  0
    1.0780    0.6790   45.0060 C   0  0  0  0  0  0  0  0  0  0  0  0
    1.4230    8.5070   52.9560 C   0  0  0  0  0  0  0  0  0  0  0  0
    2.3640    4.3840   51.6310 N   0  0  0  0  0  0  0  0  0  0  0  0
    1.9090    7.3180   52.1760 N   0  0  0  0  0  0  0  0  0  0  0  0
    1.3430    2.2660   51.0590 N   0  0  0  0  0  0  0  0  0  0  0  0
    0.3240    1.6230   45.7460 O   0  0  0  0  0  0  0  0  0  0  0  0
    3.5560    1.9050   52.3150 S   0  0  0  0  0  0  0  0  0  0  0  0
  1  3  2  0
  1  9  1  0
  2  4  1  0
  2  9  2  0
  3 10  1  0
  4 10  2  0
  5  7  2  0
  5 11  1  0
  6  8  1  0
  6 11  2  0
  7 12  1  0
  8 12  2  0
  9 18  1  0
 10 20  1  0
 11 23  1  0
 12 24  1  0
 13 21  1  0
 13 23  1  0
 13 25  2  0
 14 16  1  0
 14 21  1  0
 15 17  1  0
 15 21  1  0
 16 22  1  0
 17 22  1  0
 19 24  1  0
 20 22  1  0
M  CHG  1  22   1
M  END
>  <washed_aromatic_smiles>  (446) 
Cc1ccc(cc1)CN2CCN(CC2)C(=S)Nc3ccc(cc3)OC

>  <name>  (446) 
neg177540

$$$$
neg18752
     RDKit          3D

 26 27  0  0  0  0  0  0  0  0999 V2000
    3.9830    9.2250   53.7570 C   0  0  0  0  0  0  0  0  0  0  0  0
    2.5830    9.1620   55.7110 C   0  0  0  0  0  0  0  0  0  0  0  0
    2.9480    8.6850   52.9980 C   0  0  0  0  0  0  0  0  0  0  0  0
    1.5470    8.6360   54.9460 C   0  0  0  0  0  0  0  0  0  0  0  0
   -0.5700    0.7460   51.1510 C   0  0  0  0  0  0  0  0  0  0  0  0
    1.0200    0.6040   49.3250 C   0  0  0  0  0  0  0  0  0  0  0  0
   -1.5310    0.2920   50.3030 C   0  0  0  0  0  0  0  0  0  0  0  0
    0.0440    0.0710   48.4940 C   0  0  0  0  0  0  0  0  0  0  0  0
    3.8060    9.4630   55.1190 C   0  0  0  0  0  0  0  0  0  0  0  0
    1.7270    8.3780   53.5930 C   0  0  0  0  0  0  0  0  0  0  0  0
    0.7060    0.8530   50.6660 C   0  0  0  0  0  0  0  0  0  0  0  0
   -1.2240   -0.1280   49.0320 C   0  0  0  0  0  0  0  0  0  0  0  0
    2.8100    1.6580   51.5070 C   0  0  0  0  0  0  0  0  0  0  0  0
    0.9240    5.7160   51.4100 C   0  0  0  0  0  0  0  0  0  0  0  0
    4.9270   10.0430   55.9480 C   0  0  0  0  0  0  0  0  0  0  0  0
    3.6170    5.3570   52.6230 C   0  0  0  0  0  0  0  0  0  0  0  0
   -3.5280   -1.2620   49.0520 C   0  0  0  0  0  0  0  0  0  0  0  0
    0.6160    7.7230   52.8080 C   0  0  0  0  0  0  0  0  0  0  0  0
    3.1590    2.7010   52.5060 C   0  0  0  0  0  0  0  0  0  0  0  0
    1.8230    4.5000   51.1260 C   0  0  0  0  0  0  0  0  0  0  0  0
    1.5420    1.3020   51.6470 N   0  0  0  0  0  0  0  0  0  0  0  0
    0.8870    6.3050   52.6100 N   0  0  0  0  0  0  0  0  0  0  0  0
    2.7910    4.1820   52.2050 N   0  0  0  0  0  0  0  0  0  0  0  0
    3.5580    1.1220   50.7160 O   0  0  0  0  0  0  0  0  0  0  0  0
    0.2320    6.1160   50.5040 O   0  0  0  0  0  0  0  0  0  0  0  0
   -2.2840   -0.6920   48.4110 O   0  0  0  0  0  0  0  0  0  0  0  0
  1  3  2  0
  1  9  1  0
  2  4  1  0
  2  9  2  0
  3 10  1  0
  4 10  2  0
  5  7  2  0
  5 11  1  0
  6  8  1  0
  6 11  2  0
  7 12  1  0
  8 12  2  0
  9 15  1  0
 10 18  1  0
 11 21  1  0
 12 26  1  0
 13 19  1  0
 13 21  1  0
 13 24  2  0
 14 20  1  0
 14 22  1  0
 14 25  2  0
 16 23  1  0
 17 26  1  0
 18 22  1  0
 19 23  1  0
 20 23  1  0
M  END
>  <washed_aromatic_smiles>  (447) 
Cc1ccc(cc1)CNC(=O)CN(C)CC(=O)Nc2ccc(cc2)OC

>  <name>  (447) 
neg18752

$$$$
neg292090
     RDKit          3D

 26 28  0  0  0  0  0  0  0  0999 V2000
    2.6250   -1.0160   52.2670 C   0  0  0  0  0  0  0  0  0  0  0  0
    1.1570    0.6170   53.1900 C   0  0  0  0  0  0  0  0  0  0  0  0
    2.3100   -0.5800   50.9870 C   0  0  0  0  0  0  0  0  0  0  0  0
    0.8060    1.0320   51.9130 C   0  0  0  0  0  0  0  0  0  0  0  0
    3.8260    7.8940   54.6360 C   0  0  0  0  0  0  0  0  0  0  0  0
    2.8020    9.4700   53.1290 C   0  0  0  0  0  0  0  0  0  0  0  0
    5.0180    8.6020   54.5790 C   0  0  0  0  0  0  0  0  0  0  0  0
    3.9650   10.2160   53.1280 C   0  0  0  0  0  0  0  0  0  0  0  0
    2.1290   -0.3470   53.3730 C   0  0  0  0  0  0  0  0  0  0  0  0
    2.7400    8.2950   53.8620 C   0  0  0  0  0  0  0  0  0  0  0  0
    1.4740    0.5200   50.8120 C   0  0  0  0  0  0  0  0  0  0  0  0
    5.0900    9.7290   53.7650 C   0  0  0  0  0  0  0  0  0  0  0  0
    2.6250    5.9240   51.9890 C   0  0  0  0  0  0  0  0  0  0  0  0
    2.2380    3.6310   49.0130 C   0  0  0  0  0  0  0  0  0  0  0  0
    0.3530    6.3210   51.8840 C   0  0  0  0  0  0  0  0  0  0  0  0
    0.7930    5.3990   50.7700 C   0  0  0  0  0  0  0  0  0  0  0  0
    2.6560   -0.5990   54.7580 C   0  0  0  0  0  0  0  0  0  0  0  0
    1.5190    7.4400   53.7510 C   0  0  0  0  0  0  0  0  0  0  0  0
    1.4170    1.3190   49.5310 C   0  0  0  0  0  0  0  0  0  0  0  0
    2.9450    4.8340   49.6470 C   0  0  0  0  0  0  0  0  0  0  0  0
    1.5520    6.5310   52.6210 N   0  0  0  0  0  0  0  0  0  0  0  0
    2.2110    5.4400   50.7680 N   0  0  0  0  0  0  0  0  0  0  0  0
    2.2930    2.4870   49.7060 N   0  0  0  0  0  0  0  0  0  0  0  0
    3.7420    5.7690   52.4730 O   0  0  0  0  0  0  0  0  0  0  0  0
    1.5600    3.7310   47.9920 O   0  0  0  0  0  0  0  0  0  0  0  0
    6.5630   10.5140   53.4290 Cl  0  0  0  0  0  0  0  0  0  0  0  0
  1  3  2  0
  1  9  1  0
  2  4  1  0
  2  9  2  0
  3 11  1  0
  4 11  2  0
  5  7  2  0
  5 10  1  0
  6  8  1  0
  6 10  2  0
  7 12  1  0
  8 12  2  0
  9 17  1  0
 10 18  1  0
 11 19  1  0
 12 26  1  0
 13 21  1  0
 13 22  1  0
 13 24  2  0
 14 20  1  0
 14 23  1  0
 14 25  2  0
 15 16  1  0
 15 21  1  0
 16 22  1  0
 18 21  1  0
 19 23  1  0
 20 22  1  0
M  END
>  <washed_aromatic_smiles>  (448) 
Cc1ccc(cc1)CNC(=O)CN2CCN(C2=O)Cc3ccc(cc3)Cl

>  <name>  (448) 
neg292090

$$$$
neg80629
     RDKit          3D

 27 29  0  0  0  0  0  0  0  0999 V2000
    5.3810   12.6860   56.6180 C   0  0  0  0  0  0  0  0  0  0  0  0
    5.0310   10.3410   57.0200 C   0  0  0  0  0  0  0  0  0  0  0  0
    5.2250   12.4770   55.2510 C   0  0  0  0  0  0  0  0  0  0  0  0
    4.8770   10.1300   55.6570 C   0  0  0  0  0  0  0  0  0  0  0  0
    2.7720    5.3400   49.9390 C   0  0  0  0  0  0  0  0  0  0  0  0
    3.0870    5.0000   52.2990 C   0  0  0  0  0  0  0  0  0  0  0  0
    2.5530    3.9800   49.7830 C   0  0  0  0  0  0  0  0  0  0  0  0
    2.8390    3.6540   52.1410 C   0  0  0  0  0  0  0  0  0  0  0  0
    5.2860   11.6180   57.5070 C   0  0  0  0  0  0  0  0  0  0  0  0
    4.9700   11.1980   54.7580 C   0  0  0  0  0  0  0  0  0  0  0  0
    2.9530    5.8520   51.2140 C   0  0  0  0  0  0  0  0  0  0  0  0
    2.5150    3.1340   50.9000 C   0  0  0  0  0  0  0  0  0  0  0  0
    3.1590    9.2030   52.7640 C   0  0  0  0  0  0  0  0  0  0  0  0
   -0.1640   -0.4530   48.5760 C   0  0  0  0  0  0  0  0  0  0  0  0
    0.2220    0.6140   47.5770 C   0  0  0  0  0  0  0  0  0  0  0  0
   -0.1440    0.2280   49.9320 C   0  0  0  0  0  0  0  0  0  0  0  0
    0.9060    1.6810   48.4160 C   0  0  0  0  0  0  0  0  0  0  0  0
    5.4370   11.8210   58.9930 C   0  0  0  0  0  0  0  0  0  0  0  0
    4.7830   11.0060   53.2620 C   0  0  0  0  0  0  0  0  0  0  0  0
    2.9880    7.7280   52.7430 C   0  0  0  0  0  0  0  0  0  0  0  0
    0.7630    1.3410   49.8310 N   0  0  0  0  0  0  0  0  0  0  0  0
    4.4170    9.6490   52.8860 N   0  0  0  0  0  0  0  0  0  0  0  0
    2.1730    9.9100   52.6980 O   0  0  0  0  0  0  0  0  0  0  0  0
    3.1510    0.6720   50.3780 O   0  0  0  0  0  0  0  0  0  0  0  0
    1.6040    1.0480   52.1830 O   0  0  0  0  0  0  0  0  0  0  0  0
    2.9760    7.1970   51.4010 O   0  0  0  0  0  0  0  0  0  0  0  0
    2.0500    1.4130   50.8770 S   0  0  0  0  0  0  0  0  0  0  0  0
  1  3  2  0
  1  9  1  0
  2  4  1  0
  2  9  2  0
  3 10  1  0
  4 10  2  0
  5  7  2  0
  5 11  1  0
  6  8  1  0
  6 11  2  0
  7 12  1  0
  8 12  2  0
  9 18  1  0
 10 19  1  0
 11 26  1  0
 12 27  1  0
 13 20  1  0
 13 22  1  0
 13 23  2  0
 14 15  1  0
 14 16  1  0
 15 17  1  0
 16 21  1  0
 17 21  1  0
 19 22  1  0
 20 26  1  0
 21 27  1  0
 24 27  2  0
 25 27  2  0
M  END
>  <washed_aromatic_smiles>  (449) 
Cc1ccc(cc1)CNC(=O)COc2ccc(cc2)S(=O)(=O)N3CCCC3

>  <name>  (449) 
neg80629

$$$$
neg61493
     RDKit          3D

 25 26  0  0  0  0  0  0  0  0999 V2000
    4.0300    8.4310   56.4940 C   0  0  0  0  0  0  0  0  0  0  0  0
    4.7870    9.5630   56.7690 C   0  0  0  0  0  0  0  0  0  0  0  0
    3.4920    8.2370   55.2240 C   0  0  0  0  0  0  0  0  0  0  0  0
    0.2810    1.2210   47.7250 C   0  0  0  0  0  0  0  0  0  0  0  0
    0.3220    0.5850   50.0540 C   0  0  0  0  0  0  0  0  0  0  0  0
    1.2530    2.1670   47.9700 C   0  0  0  0  0  0  0  0  0  0  0  0
    1.3180    1.5210   50.2930 C   0  0  0  0  0  0  0  0  0  0  0  0
    5.0210   10.4990   55.7710 C   0  0  0  0  0  0  0  0  0  0  0  0
   -0.2070    0.4540   48.7730 C   0  0  0  0  0  0  0  0  0  0  0  0
    1.7690    2.3250   49.2500 C   0  0  0  0  0  0  0  0  0  0  0  0
    3.7290    9.1540   54.1990 C   0  0  0  0  0  0  0  0  0  0  0  0
    4.5010   10.2870   54.4910 C   0  0  0  0  0  0  0  0  0  0  0  0
    2.8340    6.5250   52.4870 C   0  0  0  0  0  0  0  0  0  0  0  0
   -1.4020   -0.4040   48.5080 C   0  0  0  0  0  0  0  0  0  0  0  0
    5.2220   12.5500   53.6970 C   0  0  0  0  0  0  0  0  0  0  0  0
    3.1560    8.9870   52.7930 C   0  0  0  0  0  0  0  0  0  0  0  0
    2.8290    3.3600   49.4610 C   0  0  0  0  0  0  0  0  0  0  0  0
    1.8820    5.4350   52.0340 C   0  0  0  0  0  0  0  0  0  0  0  0
    1.3370    5.4390   50.6150 C   0  0  0  0  0  0  0  0  0  0  0  0
    2.3790    7.7840   52.4640 N   0  0  0  0  0  0  0  0  0  0  0  0
    3.8860    6.1780   53.0090 O   0  0  0  0  0  0  0  0  0  0  0  0
    1.6170    5.1020   48.0370 O   0  0  0  0  0  0  0  0  0  0  0  0
    3.5690    5.8440   49.2800 O   0  0  0  0  0  0  0  0  0  0  0  0
    4.7220   11.2110   53.4830 O   0  0  0  0  0  0  0  0  0  0  0  0
    2.3890    5.0480   49.2270 S   0  0  0  0  0  0  0  0  0  0  0  0
  1  2  2  0
  1  3  1  0
  2  8  1  0
  3 11  2  0
  4  6  2  0
  4  9  1  0
  5  7  1  0
  5  9  2  0
  6 10  1  0
  7 10  2  0
  8 12  2  0
  9 14  1  0
 10 17  1  0
 11 12  1  0
 11 16  1  0
 12 24  1  0
 13 18  1  0
 13 20  1  0
 13 21  2  0
 15 24  1  0
 16 20  1  0
 17 25  1  0
 18 19  1  0
 19 25  1  0
 22 25  2  0
 23 25  2  0
M  END
>  <washed_aromatic_smiles>  (450) 
Cc1ccc(cc1)CS(=O)(=O)CCC(=O)NCc2ccccc2OC

>  <name>  (450) 
neg61493

$$$$
neg211695
     RDKit          3D

 29 31  0  0  0  0  0  0  0  0999 V2000
    5.2910    9.4100   55.8420 C   0  0  0  0  0  0  0  0  0  0  0  0
   -0.3290    9.0340   52.1800 C   0  0  0  0  0  0  0  0  0  0  0  0
    5.5120    9.8150   54.5300 C   0  0  0  0  0  0  0  0  0  0  0  0
    4.5020    8.2990   56.0930 C   0  0  0  0  0  0  0  0  0  0  0  0
    0.7460    9.8030   52.4020 C   0  0  0  0  0  0  0  0  0  0  0  0
   -0.3050    7.6500   52.4040 C   0  0  0  0  0  0  0  0  0  0  0  0
    4.9340    9.1180   53.4750 C   0  0  0  0  0  0  0  0  0  0  0  0
    3.9200    7.6160   55.0340 C   0  0  0  0  0  0  0  0  0  0  0  0
    1.8650    9.2450   52.9190 C   0  0  0  0  0  0  0  0  0  0  0  0
    0.8120    7.0570   52.8860 C   0  0  0  0  0  0  0  0  0  0  0  0
    1.6400    3.0760   47.7840 C   0  0  0  0  0  0  0  0  0  0  0  0
    0.5740    1.3580   49.0890 C   0  0  0  0  0  0  0  0  0  0  0  0
    2.1700    3.6580   48.9240 C   0  0  0  0  0  0  0  0  0  0  0  0
    1.0910    1.9260   50.2410 C   0  0  0  0  0  0  0  0  0  0  0  0
    0.8450    1.9290   47.8510 C   0  0  0  0  0  0  0  0  0  0  0  0
    4.1260    7.9950   53.7100 C   0  0  0  0  0  0  0  0  0  0  0  0
    1.9180    7.8540   53.0030 C   0  0  0  0  0  0  0  0  0  0  0  0
    1.9150    3.0580   50.1510 C   0  0  0  0  0  0  0  0  0  0  0  0
    3.2820    5.7650   52.4970 C   0  0  0  0  0  0  0  0  0  0  0  0
    3.0650    2.4830   52.1410 C   0  0  0  0  0  0  0  0  0  0  0  0
    0.2960    1.2720   46.6070 C   0  0  0  0  0  0  0  0  0  0  0  0
    3.4240    0.0900   51.8630 C   0  0  0  0  0  0  0  0  0  0  0  0
    3.2150    7.2990   52.6420 C   0  0  0  0  0  0  0  0  0  0  0  0
    2.5940    5.0330   51.5330 N   0  0  0  0  0  0  0  0  0  0  0  0
    2.5740    3.5030   51.3150 N   0  0  0  0  0  0  0  0  0  0  0  0
    3.9680    5.1680   53.2540 O   0  0  0  0  0  0  0  0  0  0  0  0
    2.8650    2.3850   53.3400 O   0  0  0  0  0  0  0  0  0  0  0  0
    3.2380    7.8010   51.2760 O   0  0  0  0  0  0  0  0  0  0  0  0
    3.6400    1.4570   51.4580 O   0  0  0  0  0  0  0  0  0  0  0  0
  1  3  2  0
  1  4  1  0
  2  5  2  0
  2  6  1  0
  3  7  1  0
  4  8  2  0
  5  9  1  0
  6 10  2  0
  7 16  2  0
  8 16  1  0
  9 17  2  0
 10 17  1  0
 11 13  2  0
 11 15  1  0
 12 14  1  0
 12 15  2  0
 13 18  1  0
 14 18  2  0
 15 21  1  0
 16 23  1  0
 17 23  1  0
 18 25  1  0
 19 23  1  0
 19 24  1  0
 19 26  2  0
 20 25  1  0
 20 27  2  0
 20 29  1  0
 22 29  1  0
 23 28  1  0
 24 25  1  0
M  END
>  <washed_aromatic_smiles>  (451) 
Cc1ccc(cc1)N(C(=O)OC)NC(=O)C(c2ccccc2)(c3ccccc3)O

>  <name>  (451) 
neg211695

$$$$
neg250703
     RDKit          3D

 26 28  0  0  0  0  0  0  0  0999 V2000
    2.6670    4.7370   51.6530 C   0  0  0  0  0  0  0  0  0  0  0  0
    3.4190    5.4650   52.5710 C   0  0  0  0  0  0  0  0  0  0  0  0
    1.4370    5.2250   51.2360 C   0  0  0  0  0  0  0  0  0  0  0  0
    3.7310   10.3250   57.4450 C   0  0  0  0  0  0  0  0  0  0  0  0
    4.7250   10.5180   55.2820 C   0  0  0  0  0  0  0  0  0  0  0  0
    2.8020    9.4220   56.9410 C   0  0  0  0  0  0  0  0  0  0  0  0
    3.8030    9.6090   54.7810 C   0  0  0  0  0  0  0  0  0  0  0  0
    2.9600    6.6680   53.0550 C   0  0  0  0  0  0  0  0  0  0  0  0
    0.9610    6.4250   51.7480 C   0  0  0  0  0  0  0  0  0  0  0  0
    4.6400   10.9480   56.6000 C   0  0  0  0  0  0  0  0  0  0  0  0
    2.7010    9.2010   55.5640 C   0  0  0  0  0  0  0  0  0  0  0  0
    1.7370    7.1630   52.6400 C   0  0  0  0  0  0  0  0  0  0  0  0
   -0.3190    8.5980   57.1430 C   0  0  0  0  0  0  0  0  0  0  0  0
   -2.1370    7.0220   57.6020 C   0  0  0  0  0  0  0  0  0  0  0  0
   -1.3200    8.3260   59.4080 C   0  0  0  0  0  0  0  0  0  0  0  0
   -2.7370    6.1340   58.6620 C   0  0  0  0  0  0  0  0  0  0  0  0
   -2.1900    7.5080   60.3800 C   0  0  0  0  0  0  0  0  0  0  0  0
    5.4880   12.0930   57.0970 C   0  0  0  0  0  0  0  0  0  0  0  0
    0.0460    8.4130   55.6430 C   0  0  0  0  0  0  0  0  0  0  0  0
   -1.0800    7.8680   58.0190 N   0  0  0  0  0  0  0  0  0  0  0  0
    1.4550    8.6600   54.9640 N   0  0  0  0  0  0  0  0  0  0  0  0
    0.0250    9.6410   57.5810 O   0  0  0  0  0  0  0  0  0  0  0  0
    2.0660    9.7220   52.6590 O   0  0  0  0  0  0  0  0  0  0  0  0
   -0.1480    8.8950   52.9400 O   0  0  0  0  0  0  0  0  0  0  0  0
   -3.2670    6.9190   59.7060 O   0  0  0  0  0  0  0  0  0  0  0  0
    1.2240    8.7480   53.2430 S   0  0  0  0  0  0  0  0  0  0  0  0
  1  2  2  0
  1  3  1  0
  2  8  1  0
  3  9  2  0
  4  6  2  0
  4 10  1  0
  5  7  1  0
  5 10  2  0
  6 11  1  0
  7 11  2  0
  8 12  2  0
  9 12  1  0
 10 18  1  0
 11 21  1  0
 12 26  1  0
 13 19  1  0
 13 20  1  0
 13 22  2  0
 14 16  1  0
 14 20  1  0
 15 17  1  0
 15 20  1  0
 16 25  1  0
 17 25  1  0
 19 21  1  0
 21 26  1  0
 23 26  2  0
 24 26  2  0
M  END
>  <washed_aromatic_smiles>  (452) 
Cc1ccc(cc1)N(CC(=O)N2CCOCC2)S(=O)(=O)c3ccccc3

>  <name>  (452) 
neg250703

$$$$
neg175830
     RDKit          3D

 25 26  0  0  0  0  0  0  0  0999 V2000
    1.8060    9.0870   57.1390 C   0  0  0  0  0  0  0  0  0  0  0  0
    0.3480    8.5930   55.3260 C   0  0  0  0  0  0  0  0  0  0  0  0
    1.9070    4.2460   48.6370 C   0  0  0  0  0  0  0  0  0  0  0  0
    2.8710    9.2620   56.2810 C   0  0  0  0  0  0  0  0  0  0  0  0
    1.3900    8.7920   54.4440 C   0  0  0  0  0  0  0  0  0  0  0  0
    1.0140    4.8620   49.4750 C   0  0  0  0  0  0  0  0  0  0  0  0
    3.6890    5.4270   49.7470 C   0  0  0  0  0  0  0  0  0  0  0  0
    0.5130    8.8040   56.6940 C   0  0  0  0  0  0  0  0  0  0  0  0
    3.2520    4.5190   48.7780 C   0  0  0  0  0  0  0  0  0  0  0  0
    2.6610    9.1680   54.9120 C   0  0  0  0  0  0  0  0  0  0  0  0
    2.7400    6.0360   50.5730 C   0  0  0  0  0  0  0  0  0  0  0  0
    1.4070    5.6850   50.4910 C   0  0  0  0  0  0  0  0  0  0  0  0
    3.2440    7.5220   52.4890 C   0  0  0  0  0  0  0  0  0  0  0  0
   -0.6290    8.5180   57.6460 C   0  0  0  0  0  0  0  0  0  0  0  0
    4.1240    3.7820   47.8270 C   0  0  0  0  0  0  0  0  0  0  0  0
    0.1260    6.2910   52.5200 C   0  0  0  0  0  0  0  0  0  0  0  0
    5.6820   11.1130   52.9550 C   0  0  0  0  0  0  0  0  0  0  0  0
    3.4880    9.0080   52.6510 C   0  0  0  0  0  0  0  0  0  0  0  0
    2.9900    7.2460   51.1920 N   0  0  0  0  0  0  0  0  0  0  0  0
    3.6960    9.4850   53.9960 N   0  0  0  0  0  0  0  0  0  0  0  0
    3.3650    6.6500   53.3350 O   0  0  0  0  0  0  0  0  0  0  0  0
    6.1570    8.9780   54.3770 O   0  0  0  0  0  0  0  0  0  0  0  0
    5.2140   10.9120   55.4880 O   0  0  0  0  0  0  0  0  0  0  0  0
    0.4070    6.3500   51.1470 O   0  0  0  0  0  0  0  0  0  0  0  0
    5.2480   10.0700   54.3420 S   0  0  0  0  0  0  0  0  0  0  0  0
  1  4  2  0
  1  8  1  0
  2  5  1  0
  2  8  2  0
  3  6  2  0
  3  9  1  0
  4 10  1  0
  5 10  2  0
  6 12  1  0
  7  9  2  0
  7 11  1  0
  8 14  1  0
  9 15  1  0
 10 20  1  0
 11 12  2  0
 11 19  1  0
 12 24  1  0
 13 18  1  0
 13 19  1  0
 13 21  2  0
 16 24  1  0
 17 25  1  0
 18 20  1  0
 20 25  1  0
 22 25  2  0
 23 25  2  0
M  END
>  <washed_aromatic_smiles>  (453) 
Cc1ccc(cc1)N(CC(=O)Nc2cc(ccc2OC)C)S(=O)(=O)C

>  <name>  (453) 
neg175830

$$$$
neg246758
     RDKit          3D

 27 30  0  0  0  0  0  0  0  0999 V2000
    5.2470   13.6240   56.4420 C   0  0  0  0  0  0  0  0  0  0  0  0
    5.3580   13.5550   55.0540 C   0  0  0  0  0  0  0  0  0  0  0  0
    4.2060    7.0650   56.1950 C   0  0  0  0  0  0  0  0  0  0  0  0
    0.8140    5.3490   49.9780 C   0  0  0  0  0  0  0  0  0  0  0  0
    3.1310    4.9330   49.7510 C   0  0  0  0  0  0  0  0  0  0  0  0
    0.9870    6.1080   51.1330 C   0  0  0  0  0  0  0  0  0  0  0  0
    3.3360    5.6980   50.8810 C   0  0  0  0  0  0  0  0  0  0  0  0
    4.9630   12.4920   57.1780 C   0  0  0  0  0  0  0  0  0  0  0  0
    5.2710   12.3400   54.3990 C   0  0  0  0  0  0  0  0  0  0  0  0
    4.3250    8.1020   57.0780 C   0  0  0  0  0  0  0  0  0  0  0  0
    2.6890    9.2960   55.7580 C   0  0  0  0  0  0  0  0  0  0  0  0
    3.4930    7.2160   54.9710 C   0  0  0  0  0  0  0  0  0  0  0  0
    2.6570    8.2920   54.7910 C   0  0  0  0  0  0  0  0  0  0  0  0
    1.8500    4.7260   49.3030 C   0  0  0  0  0  0  0  0  0  0  0  0
    2.2780    6.2940   51.5950 C   0  0  0  0  0  0  0  0  0  0  0  0
    3.6450    9.2510   56.7660 C   0  0  0  0  0  0  0  0  0  0  0  0
    4.7100   11.3070   56.5190 C   0  0  0  0  0  0  0  0  0  0  0  0
    4.9780   11.2010   55.1310 C   0  0  0  0  0  0  0  0  0  0  0  0
    3.4120    6.4350   53.7500 C   0  0  0  0  0  0  0  0  0  0  0  0
    1.9780    8.1350   53.5010 C   0  0  0  0  0  0  0  0  0  0  0  0
    1.5830    3.8730   48.0870 C   0  0  0  0  0  0  0  0  0  0  0  0
    6.0700    9.1870   54.2180 C   0  0  0  0  0  0  0  0  0  0  0  0
    2.5280    7.0000   52.8580 N   0  0  0  0  0  0  0  0  0  0  0  0
    3.9230    5.3770   53.4610 O   0  0  0  0  0  0  0  0  0  0  0  0
    1.0740    8.8050   53.0230 O   0  0  0  0  0  0  0  0  0  0  0  0
    4.1070   10.3640   57.3350 O   0  0  0  0  0  0  0  0  0  0  0  0
    4.9360   10.0430   54.3940 O   0  0  0  0  0  0  0  0  0  0  0  0
  1  2  2  0
  1  8  1  0
  2  9  1  0
  3 10  2  0
  3 12  1  0
  4  6  2  0
  4 14  1  0
  5  7  1  0
  5 14  2  0
  6 15  1  0
  7 15  2  0
  8 17  2  0
  9 18  2  0
 10 16  1  0
 11 13  1  0
 11 16  2  0
 12 13  2  0
 12 19  1  0
 13 20  1  0
 14 21  1  0
 15 23  1  0
 16 26  1  0
 17 18  1  0
 17 26  1  0
 18 27  1  0
 19 23  1  0
 19 24  2  0
 20 23  1  0
 20 25  2  0
 22 27  1  0
M  END
>  <washed_aromatic_smiles>  (454) 
Cc1ccc(cc1)N2C(=O)c3ccc(cc3C2=O)Oc4ccccc4OC

>  <name>  (454) 
neg246758

$$$$
neg199465
     RDKit          3D

 28 31  0  0  0  0  0  0  0  0999 V2000
    5.2800   13.0030   53.7110 C   0  0  0  0  0  0  0  0  0  0  0  0
    5.5040   12.4270   58.5270 C   0  0  0  0  0  0  0  0  0  0  0  0
    5.2340   13.5530   54.9720 C   0  0  0  0  0  0  0  0  0  0  0  0
    5.5370   13.2650   57.4340 C   0  0  0  0  0  0  0  0  0  0  0  0
    5.3900   11.6130   53.5560 C   0  0  0  0  0  0  0  0  0  0  0  0
    5.2290   11.0570   58.3660 C   0  0  0  0  0  0  0  0  0  0  0  0
    1.6500    4.0110   50.3990 C   0  0  0  0  0  0  0  0  0  0  0  0
    3.2550    5.3680   49.2300 C   0  0  0  0  0  0  0  0  0  0  0  0
    1.4160    5.0490   51.2860 C   0  0  0  0  0  0  0  0  0  0  0  0
    3.0800    6.3830   50.1540 C   0  0  0  0  0  0  0  0  0  0  0  0
    5.3400   12.7490   56.1290 C   0  0  0  0  0  0  0  0  0  0  0  0
    5.2580   11.3590   55.9680 C   0  0  0  0  0  0  0  0  0  0  0  0
    5.3760   10.8010   54.6740 C   0  0  0  0  0  0  0  0  0  0  0  0
    5.0790   10.5230   57.0990 C   0  0  0  0  0  0  0  0  0  0  0  0
    2.5410    4.1830   49.3490 C   0  0  0  0  0  0  0  0  0  0  0  0
    2.1540    6.2190   51.1840 C   0  0  0  0  0  0  0  0  0  0  0  0
    5.4670    9.3680   54.5940 C   0  0  0  0  0  0  0  0  0  0  0  0
    4.7120    9.1350   56.8690 C   0  0  0  0  0  0  0  0  0  0  0  0
    2.5600    8.3380   52.4590 C   0  0  0  0  0  0  0  0  0  0  0  0
    2.6880    3.1130   48.3170 C   0  0  0  0  0  0  0  0  0  0  0  0
    2.1720    9.0140   53.7210 C   0  0  0  0  0  0  0  0  0  0  0  0
    2.4020    8.1310   54.9300 C   0  0  0  0  0  0  0  0  0  0  0  0
    3.8460    7.6410   55.0960 C   0  0  0  0  0  0  0  0  0  0  0  0
    4.7650    8.6650   55.5540 N   0  0  0  0  0  0  0  0  0  0  0  0
    1.8780    7.1870   52.1680 N   0  0  0  0  0  0  0  0  0  0  0  0
    6.1420    8.7600   53.7790 O   0  0  0  0  0  0  0  0  0  0  0  0
    4.3320    8.3720   57.7530 O   0  0  0  0  0  0  0  0  0  0  0  0
    3.4650    8.7760   51.8040 O   0  0  0  0  0  0  0  0  0  0  0  0
  1  3  2  0
  1  5  1  0
  2  4  1  0
  2  6  2  0
  3 11  1  0
  4 11  2  0
  5 13  2  0
  6 14  1  0
  7  9  2  0
  7 15  1  0
  8 10  1  0
  8 15  2  0
  9 16  1  0
 10 16  2  0
 11 12  1  0
 12 13  1  0
 12 14  2  0
 13 17  1  0
 14 18  1  0
 15 20  1  0
 16 25  1  0
 17 24  1  0
 17 26  2  0
 18 24  1  0
 18 27  2  0
 19 21  1  0
 19 25  1  0
 19 28  2  0
 21 22  1  0
 22 23  1  0
 23 24  1  0
M  END
>  <washed_aromatic_smiles>  (455) 
Cc1ccc(cc1)NC(=O)CCCN2C(=O)c3cccc4c3c(ccc4)C2=O

>  <name>  (455) 
neg199465

$$$$
neg40443
     RDKit          3D

 31 33  0  0  0  0  0  0  0  0999 V2000
    1.5790    3.7140   50.6140 C   0  0  0  0  0  0  0  0  0  0  0  0
    2.8770    4.4840   48.7420 C   0  0  0  0  0  0  0  0  0  0  0  0
    5.7780   12.8990   55.5420 C   0  0  0  0  0  0  0  0  0  0  0  0
    4.8370   12.6300   53.3510 C   0  0  0  0  0  0  0  0  0  0  0  0
    1.8390    4.8930   51.2940 C   0  0  0  0  0  0  0  0  0  0  0  0
    3.1790    5.6560   49.4280 C   0  0  0  0  0  0  0  0  0  0  0  0
    6.0120   11.5680   55.5860 C   0  0  0  0  0  0  0  0  0  0  0  0
    5.3960   11.3620   53.2740 C   0  0  0  0  0  0  0  0  0  0  0  0
    2.0410    3.5280   49.3180 C   0  0  0  0  0  0  0  0  0  0  0  0
    4.8820   13.2730   54.5790 C   0  0  0  0  0  0  0  0  0  0  0  0
    2.6280    5.8650   50.6940 C   0  0  0  0  0  0  0  0  0  0  0  0
    5.8300   10.7650   54.4600 C   0  0  0  0  0  0  0  0  0  0  0  0
    3.2690    7.2130   52.6600 C   0  0  0  0  0  0  0  0  0  0  0  0
    3.5250    9.1450   55.6000 C   0  0  0  0  0  0  0  0  0  0  0  0
    1.2480    8.5290   54.7990 C   0  0  0  0  0  0  0  0  0  0  0  0
    1.7490    9.3480   57.0960 C   0  0  0  0  0  0  0  0  0  0  0  0
   -0.1020    8.1320   55.3180 C   0  0  0  0  0  0  0  0  0  0  0  0
    0.3570    9.0260   57.6020 C   0  0  0  0  0  0  0  0  0  0  0  0
    1.5960    2.3010   48.5640 C   0  0  0  0  0  0  0  0  0  0  0  0
    3.6450   13.5460   55.3440 C   0  0  0  0  0  0  0  0  0  0  0  0
   -1.4160    7.4430   57.4300 C   0  0  0  0  0  0  0  0  0  0  0  0
    3.6490    8.6030   53.1400 C   0  0  0  0  0  0  0  0  0  0  0  0
    2.2140    8.8440   55.8230 N   0  0  0  0  0  0  0  0  0  0  0  0
   -0.6050    8.4950   56.7060 N   0  0  0  0  0  0  0  0  0  0  0  0
    2.8430    7.0910   51.3590 N   0  0  0  0  0  0  0  0  0  0  0  0
    4.2200    8.6410   54.5050 N   0  0  0  0  0  0  0  0  0  0  0  0
    3.4160    6.2280   53.3560 O   0  0  0  0  0  0  0  0  0  0  0  0
    4.0810    9.8530   56.4530 O   0  0  0  0  0  0  0  0  0  0  0  0
    6.2690    8.6070   55.9500 O   0  0  0  0  0  0  0  0  0  0  0  0
    6.6120    8.4280   53.5910 O   0  0  0  0  0  0  0  0  0  0  0  0
    5.8570    8.9780   54.6410 S   0  0  0  0  0  0  0  0  0  0  0  0
  1  5  2  0
  1  9  1  0
  2  6  1  0
  2  9  2  0
  3  7  2  0
  3 10  1  0
  4  8  1  0
  4 10  2  0
  5 11  1  0
  6 11  2  0
  7 12  1  0
  8 12  2  0
  9 19  1  0
 10 20  1  0
 11 25  1  0
 12 31  1  0
 13 22  1  0
 13 25  1  0
 13 27  2  0
 14 23  1  0
 14 26  1  0
 14 28  2  0
 15 17  1  0
 15 23  1  0
 16 18  1  0
 16 23  1  0
 17 24  1  0
 18 24  1  0
 21 24  1  0
 22 26  1  0
 26 31  1  0
 29 31  2  0
 30 31  2  0
M  CHG  1  24   1
M  END
>  <washed_aromatic_smiles>  (456) 
Cc1ccc(cc1)NC(=O)CN(C(=O)N2CCN(CC2)C)S(=O)(=O)c3ccc(cc3)C

>  <name>  (456) 
neg40443

$$$$
neg23733
     RDKit          3D

 28 30  0  0  0  0  0  0  0  0999 V2000
    5.4990   12.9690   56.7790 C   0  0  0  0  0  0  0  0  0  0  0  0
   -0.1110    8.6310   56.3900 C   0  0  0  0  0  0  0  0  0  0  0  0
    5.3750   11.9440   57.7070 C   0  0  0  0  0  0  0  0  0  0  0  0
    5.2380   12.7240   55.4340 C   0  0  0  0  0  0  0  0  0  0  0  0
    0.8030    8.9300   57.3650 C   0  0  0  0  0  0  0  0  0  0  0  0
    0.3010    8.5380   55.0640 C   0  0  0  0  0  0  0  0  0  0  0  0
    4.9760   10.6780   57.2960 C   0  0  0  0  0  0  0  0  0  0  0  0
    4.8260   11.4580   55.0240 C   0  0  0  0  0  0  0  0  0  0  0  0
    2.1430    9.1080   57.0450 C   0  0  0  0  0  0  0  0  0  0  0  0
    2.6810    1.1750   51.8620 C   0  0  0  0  0  0  0  0  0  0  0  0
    1.7730    1.3650   49.6340 C   0  0  0  0  0  0  0  0  0  0  0  0
    2.8470    2.5480   51.9150 C   0  0  0  0  0  0  0  0  0  0  0  0
    1.9530    2.7400   49.6700 C   0  0  0  0  0  0  0  0  0  0  0  0
    1.6560    8.6840   54.7160 C   0  0  0  0  0  0  0  0  0  0  0  0
    2.1390    0.5810   50.7270 C   0  0  0  0  0  0  0  0  0  0  0  0
    4.6660   10.4330   55.9560 C   0  0  0  0  0  0  0  0  0  0  0  0
    2.5980    8.9610   55.7380 C   0  0  0  0  0  0  0  0  0  0  0  0
    2.4870    3.3300   50.8150 C   0  0  0  0  0  0  0  0  0  0  0  0
    2.0700    8.5950   53.3150 C   0  0  0  0  0  0  0  0  0  0  0  0
    3.0260    5.6210   51.7580 C   0  0  0  0  0  0  0  0  0  0  0  0
    1.9770   -0.9100   50.6840 C   0  0  0  0  0  0  0  0  0  0  0  0
    0.4350    6.7800   52.6060 C   0  0  0  0  0  0  0  0  0  0  0  0
    4.1110    9.0810   55.5320 C   0  0  0  0  0  0  0  0  0  0  0  0
    2.5880    7.0280   51.4970 C   0  0  0  0  0  0  0  0  0  0  0  0
    2.5890    4.7380   50.7930 N   0  0  0  0  0  0  0  0  0  0  0  0
    1.6760    7.5390   52.5050 N   0  0  0  0  0  0  0  0  0  0  0  0
    2.8110    9.4410   52.8240 O   0  0  0  0  0  0  0  0  0  0  0  0
    3.6200    5.3020   52.7660 O   0  0  0  0  0  0  0  0  0  0  0  0
  1  3  2  0
  1  4  1  0
  2  5  2  0
  2  6  1  0
  3  7  1  0
  4  8  2  0
  5  9  1  0
  6 14  2  0
  7 16  2  0
  8 16  1  0
  9 17  2  0
 10 12  2  0
 10 15  1  0
 11 13  1  0
 11 15  2  0
 12 18  1  0
 13 18  2  0
 14 17  1  0
 14 19  1  0
 15 21  1  0
 16 23  1  0
 17 23  1  0
 18 25  1  0
 19 26  1  0
 19 27  2  0
 20 24  1  0
 20 25  1  0
 20 28  2  0
 22 26  1  0
 24 26  1  0
M  END
>  <washed_aromatic_smiles>  (457) 
Cc1ccc(cc1)NC(=O)CN(C)C(=O)c2ccccc2Cc3ccccc3

>  <name>  (457) 
neg23733

$$$$
neg25517
     RDKit          3D

 26 28  0  0  0  0  0  0  0  0999 V2000
    5.9240   13.1180   57.1490 C   0  0  0  0  0  0  0  0  0  0  0  0
    5.5790   12.1740   58.1050 C   0  0  0  0  0  0  0  0  0  0  0  0
    5.6170   12.8930   55.8090 C   0  0  0  0  0  0  0  0  0  0  0  0
    4.8960   11.0290   57.7290 C   0  0  0  0  0  0  0  0  0  0  0  0
    4.9240   11.7530   55.4320 C   0  0  0  0  0  0  0  0  0  0  0  0
    1.7680    1.7240   50.1010 C   0  0  0  0  0  0  0  0  0  0  0  0
    1.0740    2.8030   48.0670 C   0  0  0  0  0  0  0  0  0  0  0  0
    2.1800    2.9470   50.6200 C   0  0  0  0  0  0  0  0  0  0  0  0
    1.4790    4.0340   48.5740 C   0  0  0  0  0  0  0  0  0  0  0  0
    4.4960   10.8340   56.3960 C   0  0  0  0  0  0  0  0  0  0  0  0
    3.0360    9.1810   54.9370 C   0  0  0  0  0  0  0  0  0  0  0  0
    1.2010    1.6440   48.8300 C   0  0  0  0  0  0  0  0  0  0  0  0
    2.0100    4.1170   49.8630 C   0  0  0  0  0  0  0  0  0  0  0  0
    3.4680    9.8450   56.1050 C   0  0  0  0  0  0  0  0  0  0  0  0
    1.7940    8.7530   55.2410 C   0  0  0  0  0  0  0  0  0  0  0  0
    3.6210    8.9020   53.6410 C   0  0  0  0  0  0  0  0  0  0  0  0
    2.7800    5.8530   51.5640 C   0  0  0  0  0  0  0  0  0  0  0  0
    0.7060    0.3190   48.2830 C   0  0  0  0  0  0  0  0  0  0  0  0
    0.6900    8.1570   54.4040 C   0  0  0  0  0  0  0  0  0  0  0  0
    2.7870    7.3430   51.8430 C   0  0  0  0  0  0  0  0  0  0  0  0
    2.5970    9.6330   57.0370 N   0  0  0  0  0  0  0  0  0  0  0  0
    2.3040    5.4400   50.3340 N   0  0  0  0  0  0  0  0  0  0  0  0
    4.3020    9.6600   52.9730 O   0  0  0  0  0  0  0  0  0  0  0  0
    3.1340    5.0570   52.4060 O   0  0  0  0  0  0  0  0  0  0  0  0
    1.5730    8.9970   56.5140 O   0  0  0  0  0  0  0  0  0  0  0  0
    3.3190    7.6730   53.1590 O   0  0  0  0  0  0  0  0  0  0  0  0
  1  2  2  0
  1  3  1  0
  2  4  1  0
  3  5  2  0
  4 10  2  0
  5 10  1  0
  6  8  2  0
  6 12  1  0
  7  9  1  0
  7 12  2  0
  8 13  1  0
  9 13  2  0
 10 14  1  0
 11 14  1  0
 11 15  2  0
 11 16  1  0
 12 18  1  0
 13 22  1  0
 14 21  2  0
 15 19  1  0
 15 25  1  0
 16 23  2  0
 16 26  1  0
 17 20  1  0
 17 22  1  0
 17 24  2  0
 20 26  1  0
 21 25  1  0
M  END
>  <washed_aromatic_smiles>  (458) 
Cc1ccc(cc1)NC(=O)COC(=O)c2c(onc2c3ccccc3)C

>  <name>  (458) 
neg25517

$$$$
neg30028
     RDKit          3D

 27 28  0  0  0  0  0  0  0  0999 V2000
    3.7960    6.0030   49.5820 C   0  0  0  0  0  0  0  0  0  0  0  0
    3.2340    4.9720   48.8640 C   0  0  0  0  0  0  0  0  0  0  0  0
    3.1070    6.6040   50.6380 C   0  0  0  0  0  0  0  0  0  0  0  0
    2.8560    1.7380   53.0090 C   0  0  0  0  0  0  0  0  0  0  0  0
    2.7190   -0.5170   53.8410 C   0  0  0  0  0  0  0  0  0  0  0  0
    2.5140    1.3040   51.7400 C   0  0  0  0  0  0  0  0  0  0  0  0
    2.3690   -0.9660   52.5740 C   0  0  0  0  0  0  0  0  0  0  0  0
    1.4130    4.9760   50.4270 C   0  0  0  0  0  0  0  0  0  0  0  0
    2.9320    0.8390   54.0730 C   0  0  0  0  0  0  0  0  0  0  0  0
    1.9930    4.5170   49.2420 C   0  0  0  0  0  0  0  0  0  0  0  0
    1.9370    6.0560   51.1180 C   0  0  0  0  0  0  0  0  0  0  0  0
    2.2160   -0.0440   51.5430 C   0  0  0  0  0  0  0  0  0  0  0  0
    0.7010    0.1640   49.6270 C   0  0  0  0  0  0  0  0  0  0  0  0
    0.6690    1.9780   46.7660 C   0  0  0  0  0  0  0  0  0  0  0  0
    3.2390    1.3050   55.4760 C   0  0  0  0  0  0  0  0  0  0  0  0
    1.1540    3.7820   48.2540 C   0  0  0  0  0  0  0  0  0  0  0  0
    0.2040   -0.4690   48.3590 C   0  0  0  0  0  0  0  0  0  0  0  0
    1.0200    0.7860   45.9300 C   0  0  0  0  0  0  0  0  0  0  0  0
    1.2450    6.6780   52.3320 C   0  0  0  0  0  0  0  0  0  0  0  0
    1.7000   -0.4900   50.3100 N   0  0  0  0  0  0  0  0  0  0  0  0
    1.5920    2.6980   47.4370 N   0  0  0  0  0  0  0  0  0  0  0  0
    0.2060    1.1800   50.0670 O   0  0  0  0  0  0  0  0  0  0  0  0
   -0.5150    2.1980   46.9070 O   0  0  0  0  0  0  0  0  0  0  0  0
    2.0570    6.7320   53.3940 F   0  0  0  0  0  0  0  0  0  0  0  0
    0.8300    7.9250   52.1550 F   0  0  0  0  0  0  0  0  0  0  0  0
    0.1550    6.0100   52.6990 F   0  0  0  0  0  0  0  0  0  0  0  0
    1.4410   -0.6120   47.0070 S   0  0  0  0  0  0  0  0  0  0  0  0
  1  2  2  0
  1  3  1  0
  2 10  1  0
  3 11  2  0
  4  6  2  0
  4  9  1  0
  5  7  1  0
  5  9  2  0
  6 12  1  0
  7 12  2  0
  8 10  2  0
  8 11  1  0
  9 15  1  0
 10 16  1  0
 11 19  1  0
 12 20  1  0
 13 17  1  0
 13 20  1  0
 13 22  2  0
 14 18  1  0
 14 21  1  0
 14 23  2  0
 16 21  1  0
 17 27  1  0
 18 27  1  0
 19 24  1  0
 19 25  1  0
 19 26  1  0
M  END
>  <washed_aromatic_smiles>  (459) 
Cc1ccc(cc1)NC(=O)CSCC(=O)NCc2cccc(c2)C(F)(F)F

>  <name>  (459) 
neg30028

$$$$
neg34923
     RDKit          3D

 28 30  0  0  0  0  0  0  0  0999 V2000
    2.8990   -0.4400   53.0920 C   0  0  0  0  0  0  0  0  0  0  0  0
    3.0450    0.7070   53.8510 C   0  0  0  0  0  0  0  0  0  0  0  0
    4.7360   11.1510   57.2630 C   0  0  0  0  0  0  0  0  0  0  0  0
    5.6030   12.4900   55.4560 C   0  0  0  0  0  0  0  0  0  0  0  0
    2.5290   -0.3430   51.7600 C   0  0  0  0  0  0  0  0  0  0  0  0
    2.8570    1.9470   53.2600 C   0  0  0  0  0  0  0  0  0  0  0  0
    4.3140   10.1850   56.3530 C   0  0  0  0  0  0  0  0  0  0  0  0
    5.1970   11.5310   54.5380 C   0  0  0  0  0  0  0  0  0  0  0  0
    5.3790   12.3100   56.8200 C   0  0  0  0  0  0  0  0  0  0  0  0
    2.2260    0.9080   51.1830 C   0  0  0  0  0  0  0  0  0  0  0  0
    4.5380   10.3870   54.9870 C   0  0  0  0  0  0  0  0  0  0  0  0
    2.5050    2.0770   51.9200 C   0  0  0  0  0  0  0  0  0  0  0  0
    2.9550    8.7210   53.9820 C   0  0  0  0  0  0  0  0  0  0  0  0
    2.5180    4.6560   51.8190 C   0  0  0  0  0  0  0  0  0  0  0  0
    0.2650    0.5560   47.3040 C   0  0  0  0  0  0  0  0  0  0  0  0
   -0.2130   -0.1960   48.5500 C   0  0  0  0  0  0  0  0  0  0  0  0
    0.7890    1.9260   47.7070 C   0  0  0  0  0  0  0  0  0  0  0  0
    0.8860   -0.3200   49.5680 C   0  0  0  0  0  0  0  0  0  0  0  0
    1.7840    1.9200   48.8720 C   0  0  0  0  0  0  0  0  0  0  0  0
    5.8200   13.3820   57.7960 C   0  0  0  0  0  0  0  0  0  0  0  0
    2.7740    7.9030   52.7240 C   0  0  0  0  0  0  0  0  0  0  0  0
    1.7160    5.8030   51.2410 C   0  0  0  0  0  0  0  0  0  0  0  0
    1.4820    0.9590   49.9610 N   0  0  0  0  0  0  0  0  0  0  0  0
    4.1130    9.4680   53.9950 N   0  0  0  0  0  0  0  0  0  0  0  0
    2.2320    3.3870   51.3590 N   0  0  0  0  0  0  0  0  0  0  0  0
    2.1710    8.7330   54.9140 O   0  0  0  0  0  0  0  0  0  0  0  0
    3.3630    4.8500   52.6610 O   0  0  0  0  0  0  0  0  0  0  0  0
    1.1870    7.0140   52.5160 S   0  0  0  0  0  0  0  0  0  0  0  0
  1  2  2  0
  1  5  1  0
  2  6  1  0
  3  7  2  0
  3  9  1  0
  4  8  1  0
  4  9  2  0
  5 10  2  0
  6 12  2  0
  7 11  1  0
  8 11  2  0
  9 20  1  0
 10 12  1  0
 10 23  1  0
 11 24  1  0
 12 25  1  0
 13 21  1  0
 13 24  1  0
 13 26  2  0
 14 22  1  0
 14 25  1  0
 14 27  2  0
 15 16  1  0
 15 17  1  0
 16 18  1  0
 17 19  1  0
 18 23  1  0
 19 23  1  0
 21 28  1  0
 22 28  1  0
M  END
>  <washed_aromatic_smiles>  (460) 
Cc1ccc(cc1)NC(=O)CSCC(=O)Nc2ccccc2N3CCCCC3

>  <name>  (460) 
neg34923

$$$$
neg67735
     RDKit          3D

 26 28  0  0  0  0  0  0  0  0999 V2000
    2.2330   -1.3640   51.7880 C   0  0  0  0  0  0  0  0  0  0  0  0
    1.9540   -0.6810   50.6180 C   0  0  0  0  0  0  0  0  0  0  0  0
    2.5170   -0.6900   52.9610 C   0  0  0  0  0  0  0  0  0  0  0  0
    4.0440    9.6510   54.1170 C   0  0  0  0  0  0  0  0  0  0  0  0
    2.2460    8.8430   55.4850 C   0  0  0  0  0  0  0  0  0  0  0  0
    3.5370    8.9460   53.0320 C   0  0  0  0  0  0  0  0  0  0  0  0
    1.7490    8.1040   54.4130 C   0  0  0  0  0  0  0  0  0  0  0  0
    2.3080    1.3930   51.7850 C   0  0  0  0  0  0  0  0  0  0  0  0
    2.0060    0.7100   50.5970 C   0  0  0  0  0  0  0  0  0  0  0  0
    3.4190    9.5810   55.3610 C   0  0  0  0  0  0  0  0  0  0  0  0
    2.5330    0.6930   52.9680 C   0  0  0  0  0  0  0  0  0  0  0  0
    2.4290    8.1020   53.1970 C   0  0  0  0  0  0  0  0  0  0  0  0
    1.7720    1.4250   49.3530 C   0  0  0  0  0  0  0  0  0  0  0  0
    2.6300    6.8440   51.0220 C   0  0  0  0  0  0  0  0  0  0  0  0
    1.1660    4.3650   48.7890 C   0  0  0  0  0  0  0  0  0  0  0  0
    3.5130    4.6340   48.4580 C   0  0  0  0  0  0  0  0  0  0  0  0
    1.2280    4.9380   50.2330 C   0  0  0  0  0  0  0  0  0  0  0  0
    3.6510    4.9900   49.9300 C   0  0  0  0  0  0  0  0  0  0  0  0
    2.3900    3.6290   48.2930 C   0  0  0  0  0  0  0  0  0  0  0  0
    3.9670   10.3380   56.5520 C   0  0  0  0  0  0  0  0  0  0  0  0
    2.7570    1.3890   54.2780 C   0  0  0  0  0  0  0  0  0  0  0  0
    2.4910    5.5790   50.5400 N   0  0  0  0  0  0  0  0  0  0  0  0
    1.9770    7.1660   52.2070 N   0  0  0  0  0  0  0  0  0  0  0  0
    2.6460    2.4390   49.0960 N   0  0  0  0  0  0  0  0  0  0  0  0
    0.8860    1.1490   48.5480 O   0  0  0  0  0  0  0  0  0  0  0  0
    3.3450    7.6180   50.4080 O   0  0  0  0  0  0  0  0  0  0  0  0
  1  2  2  0
  1  3  1  0
  2  9  1  0
  3 11  2  0
  4  6  2  0
  4 10  1  0
  5  7  1  0
  5 10  2  0
  6 12  1  0
  7 12  2  0
  8  9  2  0
  8 11  1  0
  9 13  1  0
 10 20  1  0
 11 21  1  0
 12 23  1  0
 13 24  1  0
 13 25  2  0
 14 22  1  0
 14 23  1  0
 14 26  2  0
 15 17  1  0
 15 19  1  0
 16 18  1  0
 16 19  1  0
 17 22  1  0
 18 22  1  0
 19 24  1  0
M  END
>  <washed_aromatic_smiles>  (461) 
Cc1ccc(cc1)NC(=O)N2CCC(CC2)NC(=O)c3cccc(c3)C

>  <name>  (461) 
neg67735

$$$$
neg237766
     RDKit          3D

 26 28  0  0  0  0  0  0  0  0999 V2000
    2.5450   -0.5600   53.8750 C   0  0  0  0  0  0  0  0  0  0  0  0
    1.6220    0.4670   53.8130 C   0  0  0  0  0  0  0  0  0  0  0  0
    2.7540   -1.3400   52.7480 C   0  0  0  0  0  0  0  0  0  0  0  0
    1.0330    8.3180   54.4390 C   0  0  0  0  0  0  0  0  0  0  0  0
    3.3570    7.7140   54.5700 C   0  0  0  0  0  0  0  0  0  0  0  0
    0.8630    7.4730   53.3470 C   0  0  0  0  0  0  0  0  0  0  0  0
    3.1900    6.8360   53.5110 C   0  0  0  0  0  0  0  0  0  0  0  0
    0.8850    0.6540   52.6550 C   0  0  0  0  0  0  0  0  0  0  0  0
    2.1470   -1.0370   51.5430 C   0  0  0  0  0  0  0  0  0  0  0  0
    1.2910    2.2530   48.1840 C   0  0  0  0  0  0  0  0  0  0  0  0
    1.9480    3.4080   47.8030 C   0  0  0  0  0  0  0  0  0  0  0  0
    1.6160    2.8740   50.4710 C   0  0  0  0  0  0  0  0  0  0  0  0
    2.1680    4.1020   50.1000 C   0  0  0  0  0  0  0  0  0  0  0  0
    2.2790    8.4360   55.0660 C   0  0  0  0  0  0  0  0  0  0  0  0
    1.9320    6.6980   52.9020 C   0  0  0  0  0  0  0  0  0  0  0  0
    1.2030   -0.0310   51.4950 C   0  0  0  0  0  0  0  0  0  0  0  0
    1.1340    1.9570   49.5320 C   0  0  0  0  0  0  0  0  0  0  0  0
    2.3980    4.3250   48.7470 C   0  0  0  0  0  0  0  0  0  0  0  0
    2.5760    5.1200   51.0540 C   0  0  0  0  0  0  0  0  0  0  0  0
    2.4800    9.2650   56.3200 C   0  0  0  0  0  0  0  0  0  0  0  0
    1.6500    5.7320   51.8800 N   0  0  0  0  0  0  0  0  0  0  0  0
    3.7220    5.5120   51.0920 O   0  0  0  0  0  0  0  0  0  0  0  0
    0.6610   -0.5760   48.9940 O   0  0  0  0  0  0  0  0  0  0  0  0
   -0.9970    0.6100   50.3050 O   0  0  0  0  0  0  0  0  0  0  0  0
    0.3700    0.3970   49.9930 S   0  0  0  0  0  0  0  0  0  0  0  0
    3.3000    5.7190   48.2710 Cl  0  0  0  0  0  0  0  0  0  0  0  0
  1  2  2  0
  1  3  1  0
  2  8  1  0
  3  9  2  0
  4  6  2  0
  4 14  1  0
  5  7  1  0
  5 14  2  0
  6 15  1  0
  7 15  2  0
  8 16  2  0
  9 16  1  0
 10 11  2  0
 10 17  1  0
 11 18  1  0
 12 13  1  0
 12 17  2  0
 13 18  2  0
 13 19  1  0
 14 20  1  0
 15 21  1  0
 16 25  1  0
 17 25  1  0
 18 26  1  0
 19 21  1  0
 19 22  2  0
 23 25  2  0
 24 25  2  0
M  END
>  <washed_aromatic_smiles>  (462) 
Cc1ccc(cc1)NC(=O)c2cc(ccc2Cl)S(=O)(=O)c3ccccc3

>  <name>  (462) 
neg237766

$$$$
neg249165
     RDKit          3D

 28 31  0  0  0  0  0  0  0  0999 V2000
    0.7080    0.3790   47.2700 C   0  0  0  0  0  0  0  0  0  0  0  0
    0.7490   -0.2490   48.5310 C   0  0  0  0  0  0  0  0  0  0  0  0
    0.8520    1.7410   47.1450 C   0  0  0  0  0  0  0  0  0  0  0  0
    3.8600    7.4840   53.6140 C   0  0  0  0  0  0  0  0  0  0  0  0
    1.8490    8.7050   53.0520 C   0  0  0  0  0  0  0  0  0  0  0  0
    5.0030   11.6190   58.5260 C   0  0  0  0  0  0  0  0  0  0  0  0
    5.9710   12.7510   56.6530 C   0  0  0  0  0  0  0  0  0  0  0  0
    4.4110   10.6990   57.6690 C   0  0  0  0  0  0  0  0  0  0  0  0
    5.4020   11.8430   55.7820 C   0  0  0  0  0  0  0  0  0  0  0  0
    1.0050    0.4950   49.6750 C   0  0  0  0  0  0  0  0  0  0  0  0
    3.3430    6.3420   53.0360 C   0  0  0  0  0  0  0  0  0  0  0  0
    1.3090    7.5600   52.4880 C   0  0  0  0  0  0  0  0  0  0  0  0
    1.5270    3.8220   48.4830 C   0  0  0  0  0  0  0  0  0  0  0  0
    1.1690    2.4860   48.2800 C   0  0  0  0  0  0  0  0  0  0  0  0
    3.1440    8.6740   53.5900 C   0  0  0  0  0  0  0  0  0  0  0  0
    5.7750   12.6630   58.0260 C   0  0  0  0  0  0  0  0  0  0  0  0
    4.6060   10.8180   56.2920 C   0  0  0  0  0  0  0  0  0  0  0  0
    1.2400    1.8600   49.5130 C   0  0  0  0  0  0  0  0  0  0  0  0
    2.0900    6.4100   52.4410 C   0  0  0  0  0  0  0  0  0  0  0  0
    1.7940    3.9670   49.8020 C   0  0  0  0  0  0  0  0  0  0  0  0
    3.8130    9.8390   54.1040 C   0  0  0  0  0  0  0  0  0  0  0  0
    2.2380    5.1390   50.4970 C   0  0  0  0  0  0  0  0  0  0  0  0
    6.4250   13.6750   58.9480 C   0  0  0  0  0  0  0  0  0  0  0  0
    3.9800    9.8480   55.4770 N   0  0  0  0  0  0  0  0  0  0  0  0
    4.2210   10.7420   53.3840 O   0  0  0  0  0  0  0  0  0  0  0  0
    3.0650    5.9200   50.0440 O   0  0  0  0  0  0  0  0  0  0  0  0
    1.6000    2.7710   50.4670 O   0  0  0  0  0  0  0  0  0  0  0  0
    1.6710    5.3490   51.7120 O   0  0  0  0  0  0  0  0  0  0  0  0
  1  2  2  0
  1  3  1  0
  2 10  1  0
  3 14  2  0
  4 11  2  0
  4 15  1  0
  5 12  1  0
  5 15  2  0
  6  8  2  0
  6 16  1  0
  7  9  1  0
  7 16  2  0
  8 17  1  0
  9 17  2  0
 10 18  2  0
 11 19  1  0
 12 19  2  0
 13 14  1  0
 13 20  2  0
 14 18  1  0
 15 21  1  0
 16 23  1  0
 17 24  1  0
 18 27  1  0
 19 28  1  0
 20 22  1  0
 20 27  1  0
 21 24  1  0
 21 25  2  0
 22 26  2  0
 22 28  1  0
M  END
>  <washed_aromatic_smiles>  (463) 
Cc1ccc(cc1)NC(=O)c2ccc(cc2)OC(=O)c3cc4ccccc4o3

>  <name>  (463) 
neg249165

$$$$
neg5465
     RDKit          3D

 31 33  0  0  0  0  0  0  0  0999 V2000
    0.9630    5.7470   50.8170 C   0  0  0  0  0  0  0  0  0  0  0  0
    3.2810    5.7750   51.3960 C   0  0  0  0  0  0  0  0  0  0  0  0
    4.4920   10.6360   56.9110 C   0  0  0  0  0  0  0  0  0  0  0  0
    4.9510   11.0610   54.5920 C   0  0  0  0  0  0  0  0  0  0  0  0
   -0.0320    0.7900   47.6530 C   0  0  0  0  0  0  0  0  0  0  0  0
    0.2720    0.9300   50.0250 C   0  0  0  0  0  0  0  0  0  0  0  0
    3.7350    9.5310   56.5670 C   0  0  0  0  0  0  0  0  0  0  0  0
    4.1890    9.9650   54.2300 C   0  0  0  0  0  0  0  0  0  0  0  0
    0.6820    6.6010   51.8690 C   0  0  0  0  0  0  0  0  0  0  0  0
    3.0130    6.6290   52.4510 C   0  0  0  0  0  0  0  0  0  0  0  0
   -1.2150    0.0870   47.8610 C   0  0  0  0  0  0  0  0  0  0  0  0
   -0.9030    0.2220   50.2160 C   0  0  0  0  0  0  0  0  0  0  0  0
    2.2630    5.3210   50.5720 C   0  0  0  0  0  0  0  0  0  0  0  0
    5.0710   11.4430   55.9290 C   0  0  0  0  0  0  0  0  0  0  0  0
    0.6890    1.2580   48.7430 C   0  0  0  0  0  0  0  0  0  0  0  0
    3.4610    9.2280   55.2080 C   0  0  0  0  0  0  0  0  0  0  0  0
   -1.6840   -0.2260   49.1330 C   0  0  0  0  0  0  0  0  0  0  0  0
    1.7210    7.0850   52.6550 C   0  0  0  0  0  0  0  0  0  0  0  0
    2.5330    4.4030   49.4840 C   0  0  0  0  0  0  0  0  0  0  0  0
    5.7750   12.7280   56.2940 C   0  0  0  0  0  0  0  0  0  0  0  0
    1.8270    2.2250   48.5620 C   0  0  0  0  0  0  0  0  0  0  0  0
   -4.3660    0.0040   49.0730 N   0  0  0  0  0  0  0  0  0  0  0  0
    2.4850    8.3620   54.9290 N   0  0  0  0  0  0  0  0  0  0  0  0
    1.6360    3.3900   49.3710 N   0  0  0  0  0  0  0  0  0  0  0  0
    3.4940    4.4660   48.7220 O   0  0  0  0  0  0  0  0  0  0  0  0
   -3.4950   -2.2460   48.6390 O   0  0  0  0  0  0  0  0  0  0  0  0
   -3.5230   -1.3230   50.7970 O   0  0  0  0  0  0  0  0  0  0  0  0
    0.1000    8.3540   54.2320 O   0  0  0  0  0  0  0  0  0  0  0  0
    1.6900    9.6060   52.8860 O   0  0  0  0  0  0  0  0  0  0  0  0
   -3.3230   -1.0990   49.4420 S   0  0  0  0  0  0  0  0  0  0  0  0
    1.4270    8.4690   53.7080 S   0  0  2  0  0  0  0  0  0  0  0  0
  1  9  2  0
  1 13  1  0
  2 10  1  0
  2 13  2  0
  3  7  2  0
  3 14  1  0
  4  8  1  0
  4 14  2  0
  5 11  2  0
  5 15  1  0
  6 12  1  0
  6 15  2  0
  7 16  1  0
  8 16  2  0
  9 18  1  0
 10 18  2  0
 11 17  1  0
 12 17  2  0
 13 19  1  0
 14 20  1  0
 15 21  1  0
 16 23  1  0
 17 30  1  0
 18 31  1  0
 19 24  1  0
 19 25  2  0
 21 24  1  0
 22 30  1  0
 23 31  2  0
 26 30  2  0
 27 30  2  0
 28 31  2  0
 31 29  1  6
M  CHG  1  29  -1
M  END
>  <washed_aromatic_smiles>  (464) 
Cc1ccc(cc1)NS(=O)(=O)c2ccc(cc2)C(=O)NCc3ccc(cc3)S(=O)(=O)N

>  <name>  (464) 
neg5465

$$$$
neg28488
     RDKit          3D

 26 28  0  0  0  0  0  0  0  0999 V2000
    3.2270    4.3430   48.1940 C   0  0  0  0  0  0  0  0  0  0  0  0
    3.3200    4.7420   49.5080 C   0  0  0  0  0  0  0  0  0  0  0  0
    0.8830    0.4920   52.9960 C   0  0  0  0  0  0  0  0  0  0  0  0
    2.4250   -0.7750   51.6980 C   0  0  0  0  0  0  0  0  0  0  0  0
    0.0790    0.6850   51.8900 C   0  0  0  0  0  0  0  0  0  0  0  0
    1.6530   -0.5680   50.5670 C   0  0  0  0  0  0  0  0  0  0  0  0
    2.3600    3.3220   47.8220 C   0  0  0  0  0  0  0  0  0  0  0  0
    1.7640    3.0030   50.0940 C   0  0  0  0  0  0  0  0  0  0  0  0
    2.5810    4.0670   50.4690 C   0  0  0  0  0  0  0  0  0  0  0  0
    2.0510   -0.2480   52.9310 C   0  0  0  0  0  0  0  0  0  0  0  0
    0.4840    0.2440   50.6080 C   0  0  0  0  0  0  0  0  0  0  0  0
    1.6540    2.5900   48.7650 C   0  0  0  0  0  0  0  0  0  0  0  0
    2.7140    4.4260   51.8630 C   0  0  0  0  0  0  0  0  0  0  0  0
    0.8630    8.4480   53.2180 C   0  0  0  0  0  0  0  0  0  0  0  0
    2.1520    8.4140   54.0490 C   0  0  0  0  0  0  0  0  0  0  0  0
    0.4690    7.1000   52.6050 C   0  0  0  0  0  0  0  0  0  0  0  0
    3.3850    7.9270   53.2850 C   0  0  0  0  0  0  0  0  0  0  0  0
    1.4750    6.5040   51.6190 C   0  0  0  0  0  0  0  0  0  0  0  0
    3.4730    6.3920   53.1690 C   0  0  0  0  0  0  0  0  0  0  0  0
    2.8480   -0.4440   54.1970 C   0  0  0  0  0  0  0  0  0  0  0  0
    2.5160    5.7290   52.2630 N   0  0  0  0  0  0  0  0  0  0  0  0
   -0.1580    0.7290   49.5390 N   0  0  0  0  0  0  0  0  0  0  0  0
    3.0270    3.5820   52.6860 O   0  0  0  0  0  0  0  0  0  0  0  0
    1.3570    0.1660   47.6510 O   0  0  0  0  0  0  0  0  0  0  0  0
   -0.3350    1.8260   47.2640 O   0  0  0  0  0  0  0  0  0  0  0  0
    0.5820    1.2340   48.1900 S   0  0  2  0  0  0  0  0  0  0  0  0
  1  2  2  0
  1  7  1  0
  2  9  1  0
  3  5  2  0
  3 10  1  0
  4  6  1  0
  4 10  2  0
  5 11  1  0
  6 11  2  0
  7 12  2  0
  8  9  2  0
  8 12  1  0
  9 13  1  0
 10 20  1  0
 11 22  1  0
 12 26  1  0
 13 21  1  0
 13 23  2  0
 14 15  1  0
 14 16  1  0
 15 17  1  0
 16 18  1  0
 17 19  1  0
 18 21  1  0
 19 21  1  0
 22 26  2  0
 24 26  2  0
 26 25  1  6
M  CHG  1  25  -1
M  END
>  <washed_aromatic_smiles>  (465) 
Cc1ccc(cc1)NS(=O)(=O)c2cccc(c2)C(=O)N3CCCCCC3

>  <name>  (465) 
neg28488

$$$$
neg324073
     RDKit          3D

 31 33  0  0  0  0  0  0  0  0999 V2000
    5.4900   11.6670   58.7100 C   0  0  0  0  0  0  0  0  0  0  0  0
    5.5580   12.8360   56.6070 C   0  0  0  0  0  0  0  0  0  0  0  0
    2.4960   -0.8390   51.9000 C   0  0  0  0  0  0  0  0  0  0  0  0
    1.0220    0.6050   53.1140 C   0  0  0  0  0  0  0  0  0  0  0  0
    5.1310   10.4950   58.0520 C   0  0  0  0  0  0  0  0  0  0  0  0
    5.2040   11.6740   55.9400 C   0  0  0  0  0  0  0  0  0  0  0  0
    1.7990   -0.5710   50.7260 C   0  0  0  0  0  0  0  0  0  0  0  0
    0.3220    0.8960   51.9490 C   0  0  0  0  0  0  0  0  0  0  0  0
    5.7600   12.8280   57.9860 C   0  0  0  0  0  0  0  0  0  0  0  0
    2.1110   -0.2500   53.1000 C   0  0  0  0  0  0  0  0  0  0  0  0
    5.0510   10.4910   56.6620 C   0  0  0  0  0  0  0  0  0  0  0  0
    0.7370    0.3310   50.7530 C   0  0  0  0  0  0  0  0  0  0  0  0
    4.0120    9.2830   53.7180 C   0  0  0  0  0  0  0  0  0  0  0  0
    1.2350    2.7090   48.6030 C   0  0  0  0  0  0  0  0  0  0  0  0
    3.1900    7.0350   54.3030 C   0  0  0  0  0  0  0  0  0  0  0  0
    1.9430    8.3050   52.7490 C   0  0  0  0  0  0  0  0  0  0  0  0
    3.5230    5.9900   53.2250 C   0  0  0  0  0  0  0  0  0  0  0  0
    2.1000    7.1560   51.7110 C   0  0  0  0  0  0  0  0  0  0  0  0
    6.3370   14.0470   58.6740 C   0  0  0  0  0  0  0  0  0  0  0  0
    2.8360   -0.5090   54.3980 C   0  0  0  0  0  0  0  0  0  0  0  0
    5.2110    9.0810   54.6200 C   0  0  0  0  0  0  0  0  0  0  0  0
    0.8240    1.2500   48.4710 C   0  0  0  0  0  0  0  0  0  0  0  0
    2.7850    4.8610   51.2350 C   0  0  0  0  0  0  0  0  0  0  0  0
    1.7220    4.5760   50.1650 C   0  0  0  0  0  0  0  0  0  0  0  0
    3.0500    8.3370   53.7010 N   0  0  0  0  0  0  0  0  0  0  0  0
    2.4150    5.8400   52.2770 N   0  0  0  0  0  0  0  0  0  0  0  0
    1.6270    3.1580   49.8060 N   0  0  0  0  0  0  0  0  0  0  0  0
    3.9190   10.3210   53.0700 O   0  0  0  0  0  0  0  0  0  0  0  0
    1.1890    3.4510   47.6270 O   0  0  0  0  0  0  0  0  0  0  0  0
    4.8760    9.2810   56.0280 O   0  0  0  0  0  0  0  0  0  0  0  0
    0.0840    0.7090   49.6060 O   0  0  0  0  0  0  0  0  0  0  0  0
  1  5  2  0
  1  9  1  0
  2  6  1  0
  2  9  2  0
  3  7  2  0
  3 10  1  0
  4  8  1  0
  4 10  2  0
  5 11  1  0
  6 11  2  0
  7 12  1  0
  8 12  2  0
  9 19  1  0
 10 20  1  0
 11 30  1  0
 12 31  1  0
 13 21  1  0
 13 25  1  0
 13 28  2  0
 14 22  1  0
 14 27  1  0
 14 29  2  0
 15 17  1  0
 15 25  1  0
 16 18  1  0
 16 25  1  0
 17 26  1  0
 18 26  1  0
 21 30  1  0
 22 31  1  0
 23 24  1  0
 23 26  1  0
 24 27  1  0
M  END
>  <washed_aromatic_smiles>  (466) 
Cc1ccc(cc1)OCC(=O)NCCN2CCN(CC2)C(=O)COc3ccc(cc3)C

>  <name>  (466) 
neg324073

$$$$
neg178949
     RDKit          3D

 30 32  0  0  0  0  0  0  0  0999 V2000
    5.5990   13.1700   57.3010 C   0  0  0  0  0  0  0  0  0  0  0  0
    5.6810   12.5830   58.5970 C   0  0  0  0  0  0  0  0  0  0  0  0
    2.8120    1.3290   52.3660 C   0  0  0  0  0  0  0  0  0  0  0  0
    0.6500    0.4400   51.8330 C   0  0  0  0  0  0  0  0  0  0  0  0
    1.5310    8.0780   52.4580 C   0  0  0  0  0  0  0  0  0  0  0  0
    3.2830    6.5390   53.0700 C   0  0  0  0  0  0  0  0  0  0  0  0
    2.7530    2.1170   51.2300 C   0  0  0  0  0  0  0  0  0  0  0  0
    0.6140    1.2070   50.6720 C   0  0  0  0  0  0  0  0  0  0  0  0
    2.3210    9.1400   52.8800 C   0  0  0  0  0  0  0  0  0  0  0  0
    4.0120    7.6070   53.5770 C   0  0  0  0  0  0  0  0  0  0  0  0
    5.2880   12.4060   56.2180 C   0  0  0  0  0  0  0  0  0  0  0  0
    5.3910   11.2650   58.7590 C   0  0  0  0  0  0  0  0  0  0  0  0
    1.7620    0.4790   52.6730 C   0  0  0  0  0  0  0  0  0  0  0  0
    2.0790    6.8010   52.4200 C   0  0  0  0  0  0  0  0  0  0  0  0
    1.6740    2.0590   50.3610 C   0  0  0  0  0  0  0  0  0  0  0  0
    3.5910    8.9180   53.4120 C   0  0  0  0  0  0  0  0  0  0  0  0
    4.9930   10.9990   56.3820 C   0  0  0  0  0  0  0  0  0  0  0  0
    2.1520    5.2710   50.5090 C   0  0  0  0  0  0  0  0  0  0  0  0
    1.8790   -0.3940   53.8950 C   0  0  0  0  0  0  0  0  0  0  0  0
    1.3520    4.7010   49.3640 C   0  0  0  0  0  0  0  0  0  0  0  0
    5.0110   10.5000   57.6780 N   0  0  0  0  0  0  0  0  0  0  0  0
    1.4660    5.8540   51.5620 N   0  0  0  0  0  0  0  0  0  0  0  0
    4.7310   10.1210   55.4920 N   0  0  0  0  0  0  0  0  0  0  0  0
    3.3660    5.2610   50.4890 O   0  0  0  0  0  0  0  0  0  0  0  0
    3.0550    3.0360   48.3530 O   0  0  0  0  0  0  0  0  0  0  0  0
    0.7070    2.5780   47.9770 O   0  0  0  0  0  0  0  0  0  0  0  0
    4.2960   11.4670   53.3980 O   0  0  0  0  0  0  0  0  0  0  0  0
    6.0650    9.8160   53.4100 O   0  0  0  0  0  0  0  0  0  0  0  0
    1.7280    3.0360   48.8540 S   0  0  0  0  0  0  0  0  0  0  0  0
    4.7660   10.2020   53.8630 S   0  0  0  0  0  0  0  0  0  0  0  0
  1  2  1  0
  1 11  2  0
  2 12  2  0
  3  7  2  0
  3 13  1  0
  4  8  1  0
  4 13  2  0
  5  9  2  0
  5 14  1  0
  6 10  1  0
  6 14  2  0
  7 15  1  0
  8 15  2  0
  9 16  1  0
 10 16  2  0
 11 17  1  0
 12 21  1  0
 13 19  1  0
 14 22  1  0
 15 29  1  0
 16 30  1  0
 17 21  1  0
 17 23  2  0
 18 20  1  0
 18 22  1  0
 18 24  2  0
 20 29  1  0
 23 30  1  0
 25 29  2  0
 26 29  2  0
 27 30  2  0
 28 30  2  0
M  END
>  <washed_aromatic_smiles>  (467) 
Cc1ccc(cc1)S(=O)(=O)CC(=O)Nc2ccc(cc2)S(=O)(=O)Nc3ccccn3

>  <name>  (467) 
neg178949

$$$$
neg28734
     RDKit          3D

 25 26  0  0  0  0  0  0  0  0999 V2000
    0.8980    2.5380   47.8950 C   0  0  0  0  0  0  0  0  0  0  0  0
    1.7220    1.2470   49.7740 C   0  0  0  0  0  0  0  0  0  0  0  0
    6.0750    9.5790   53.7700 C   0  0  0  0  0  0  0  0  0  0  0  0
    4.3170   10.9840   52.9360 C   0  0  0  0  0  0  0  0  0  0  0  0
    1.2580    3.7090   48.5380 C   0  0  0  0  0  0  0  0  0  0  0  0
    2.0330    2.4130   50.4460 C   0  0  0  0  0  0  0  0  0  0  0  0
    5.1540    8.6250   54.0850 C   0  0  0  0  0  0  0  0  0  0  0  0
    3.4000    9.9690   53.1390 C   0  0  0  0  0  0  0  0  0  0  0  0
    1.1680    1.2920   48.4830 C   0  0  0  0  0  0  0  0  0  0  0  0
    5.6550   10.7240   53.1360 C   0  0  0  0  0  0  0  0  0  0  0  0
    1.7900    3.6250   49.8160 C   0  0  0  0  0  0  0  0  0  0  0  0
    3.8340    8.7840   53.6930 C   0  0  0  0  0  0  0  0  0  0  0  0
    0.9320    0.0300   47.8050 C   0  0  0  0  0  0  0  0  0  0  0  0
    2.7880    5.7610   50.2350 C   0  0  0  0  0  0  0  0  0  0  0  0
    6.6710   11.5980   52.5510 C   0  0  0  0  0  0  0  0  0  0  0  0
    1.0690    0.7680   45.3300 C   0  0  0  0  0  0  0  0  0  0  0  0
    2.6580    6.8480   51.2560 C   0  0  0  0  0  0  0  0  0  0  0  0
    3.0500    6.3360   52.6310 C   0  0  0  0  0  0  0  0  0  0  0  0
    0.7140   -0.9950   48.4240 O   0  0  0  0  0  0  0  0  0  0  0  0
    3.5780    5.7200   49.3170 O   0  0  0  0  0  0  0  0  0  0  0  0
    3.3240    6.8340   55.1360 O   0  0  0  0  0  0  0  0  0  0  0  0
    1.4200    7.8490   54.0320 O   0  0  0  0  0  0  0  0  0  0  0  0
    1.9760    4.7460   50.5260 O   0  0  0  0  0  0  0  0  0  0  0  0
    1.0540   -0.1190   46.4610 O   0  0  0  0  0  0  0  0  0  0  0  0
    2.7820    7.4340   53.9940 S   0  0  0  0  0  0  0  0  0  0  0  0
  1  5  2  0
  1  9  1  0
  2  6  1  0
  2  9  2  0
  3  7  2  0
  3 10  1  0
  4  8  1  0
  4 10  2  0
  5 11  1  0
  6 11  2  0
  7 12  1  0
  8 12  2  0
  9 13  1  0
 10 15  1  0
 11 23  1  0
 12 25  1  0
 13 19  2  0
 13 24  1  0
 14 17  1  0
 14 20  2  0
 14 23  1  0
 16 24  1  0
 17 18  1  0
 18 25  1  0
 21 25  2  0
 22 25  2  0
M  END
>  <washed_aromatic_smiles>  (468) 
Cc1ccc(cc1)S(=O)(=O)CCC(=O)Oc2ccc(cc2)C(=O)OC

>  <name>  (468) 
neg28734

$$$$
neg276394
     RDKit          3D

 25 27  0  0  0  0  0  0  0  0999 V2000
    2.7180    1.3270   53.8680 C   0  0  0  0  0  0  0  0  0  0  0  0
    2.9620   -1.0290   53.6940 C   0  0  0  0  0  0  0  0  0  0  0  0
    2.2040    1.3280   52.5900 C   0  0  0  0  0  0  0  0  0  0  0  0
    2.4020   -1.0180   52.4160 C   0  0  0  0  0  0  0  0  0  0  0  0
    1.4960    5.1680   50.3170 C   0  0  0  0  0  0  0  0  0  0  0  0
    1.3500    4.0860   49.4540 C   0  0  0  0  0  0  0  0  0  0  0  0
    3.1160    0.1400   54.4360 C   0  0  0  0  0  0  0  0  0  0  0  0
    2.0040    0.1860   51.8550 C   0  0  0  0  0  0  0  0  0  0  0  0
    2.5230    4.8920   51.1690 C   0  0  0  0  0  0  0  0  0  0  0  0
    2.2020    3.1270   49.8570 C   0  0  0  0  0  0  0  0  0  0  0  0
    3.1320    5.5770   52.3270 C   0  0  0  0  0  0  0  0  0  0  0  0
    0.4850    8.7290   53.5260 C   0  0  0  0  0  0  0  0  0  0  0  0
    1.3720    8.4060   54.7140 C   0  0  0  0  0  0  0  0  0  0  0  0
    0.7070    7.6580   52.4820 C   0  0  0  0  0  0  0  0  0  0  0  0
    2.8710    8.6750   54.5480 C   0  0  0  0  0  0  0  0  0  0  0  0
    2.1480    7.7070   51.9700 C   0  0  0  0  0  0  0  0  0  0  0  0
    3.5940    7.4600   53.9460 C   0  0  0  0  0  0  0  0  0  0  0  0
    3.7430    0.2050   55.8110 C   0  0  0  0  0  0  0  0  0  0  0  0
    2.2720    1.6700   49.4370 C   0  0  0  0  0  0  0  0  0  0  0  0
    2.9840    6.8820   52.7200 N   0  0  0  0  0  0  0  0  0  0  0  0
    3.8280    4.9690   53.0840 O   0  0  0  0  0  0  0  0  0  0  0  0
    1.3010   -0.7940   49.5200 O   0  0  0  0  0  0  0  0  0  0  0  0
   -0.0630    0.9680   50.4510 O   0  0  0  0  0  0  0  0  0  0  0  0
    2.9760    3.6420   50.8350 O   0  0  0  0  0  0  0  0  0  0  0  0
    1.2350    0.4230   50.2540 S   0  0  0  0  0  0  0  0  0  0  0  0
  1  3  2  0
  1  7  1  0
  2  4  1  0
  2  7  2  0
  3  8  1  0
  4  8  2  0
  5  6  1  0
  5  9  2  0
  6 10  2  0
  7 18  1  0
  8 25  1  0
  9 11  1  0
  9 24  1  0
 10 19  1  0
 10 24  1  0
 11 20  1  0
 11 21  2  0
 12 13  1  0
 12 14  1  0
 13 15  1  0
 14 16  1  0
 15 17  1  0
 16 20  1  0
 17 20  1  0
 19 25  1  0
 22 25  2  0
 23 25  2  0
M  END
>  <washed_aromatic_smiles>  (469) 
Cc1ccc(cc1)S(=O)(=O)Cc2ccc(o2)C(=O)N3CCCCCC3

>  <name>  (469) 
neg276394

$$$$
neg179834
     RDKit          3D

 27 28  0  0  0  0  0  0  0  0999 V2000
   -1.0850   -0.1150   48.7510 C   0  0  0  0  0  0  0  0  0  0  0  0
   -0.3170    0.4720   47.7540 C   0  0  0  0  0  0  0  0  0  0  0  0
   -0.8500    0.2270   50.0840 C   0  0  0  0  0  0  0  0  0  0  0  0
    4.8980   10.5340   55.7430 C   0  0  0  0  0  0  0  0  0  0  0  0
    3.0770    9.5560   56.9610 C   0  0  0  0  0  0  0  0  0  0  0  0
    0.7440    1.2770   48.0940 C   0  0  0  0  0  0  0  0  0  0  0  0
    0.2580    0.9650   50.4310 C   0  0  0  0  0  0  0  0  0  0  0  0
    4.3510   10.0630   54.5540 C   0  0  0  0  0  0  0  0  0  0  0  0
    2.5010    9.1380   55.7700 C   0  0  0  0  0  0  0  0  0  0  0  0
    4.2700   10.2720   56.9570 C   0  0  0  0  0  0  0  0  0  0  0  0
    1.0750    1.4520   49.4290 C   0  0  0  0  0  0  0  0  0  0  0  0
    3.1400    9.3700   54.5600 C   0  0  0  0  0  0  0  0  0  0  0  0
    1.7850    4.5000   50.8550 C   0  0  0  0  0  0  0  0  0  0  0  0
    1.4960    6.4760   52.2730 C   0  0  0  0  0  0  0  0  0  0  0  0
    4.8720   10.7570   58.2560 C   0  0  0  0  0  0  0  0  0  0  0  0
    3.4990    6.6130   53.7760 C   0  0  0  0  0  0  0  0  0  0  0  0
    1.9520    5.2220   51.9930 N   0  0  0  0  0  0  0  0  0  0  0  0
    2.3000    3.2680   51.0670 N   0  0  0  0  0  0  0  0  0  0  0  0
    2.2540    7.1440   53.2180 N   0  0  0  0  0  0  0  0  0  0  0  0
    1.3010    4.9010   49.8050 O   0  0  0  0  0  0  0  0  0  0  0  0
    0.4890    6.9270   51.7410 O   0  0  0  0  0  0  0  0  0  0  0  0
    3.4320    1.1690   50.3600 O   0  0  0  0  0  0  0  0  0  0  0  0
    3.0630    2.9070   48.7010 O   0  0  0  0  0  0  0  0  0  0  0  0
    3.3310    9.0220   52.0010 O   0  0  0  0  0  0  0  0  0  0  0  0
    1.1100    9.3740   52.8920 O   0  0  0  0  0  0  0  0  0  0  0  0
    2.6000    2.1970   49.8410 S   0  0  0  0  0  0  0  0  0  0  0  0
    2.3960    8.7940   53.0330 S   0  0  0  0  0  0  0  0  0  0  0  0
  1  2  2  0
  1  3  1  0
  2  6  1  0
  3  7  2  0
  4  8  2  0
  4 10  1  0
  5  9  1  0
  5 10  2  0
  6 11  2  0
  7 11  1  0
  8 12  1  0
  9 12  2  0
 10 15  1  0
 11 26  1  0
 12 27  1  0
 13 17  1  0
 13 18  1  0
 13 20  2  0
 14 17  1  0
 14 19  1  0
 14 21  2  0
 16 19  1  0
 18 26  1  0
 19 27  1  0
 22 26  2  0
 23 26  2  0
 24 27  2  0
 25 27  2  0
M  END
>  <washed_aromatic_smiles>  (470) 
Cc1ccc(cc1)S(=O)(=O)N(C)C(=O)NC(=O)NS(=O)(=O)c2ccccc2

>  <name>  (470) 
neg179834

$$$$
neg48436
     RDKit          3D

 29 31  0  0  0  0  0  0  0  0999 V2000
    0.5120    0.0990   48.6440 C   0  0  0  0  0  0  0  0  0  0  0  0
    0.4730    1.1690   47.7310 C   0  0  0  0  0  0  0  0  0  0  0  0
    1.1810    0.2440   49.8710 C   0  0  0  0  0  0  0  0  0  0  0  0
    1.3800    7.9250   54.0380 C   0  0  0  0  0  0  0  0  0  0  0  0
    2.9210    8.2590   52.2080 C   0  0  0  0  0  0  0  0  0  0  0  0
    1.0940    2.3890   48.0530 C   0  0  0  0  0  0  0  0  0  0  0  0
    1.8150    1.4580   50.1860 C   0  0  0  0  0  0  0  0  0  0  0  0
    5.9290   13.9120   57.7110 C   0  0  0  0  0  0  0  0  0  0  0  0
    5.6730   11.8400   58.8560 C   0  0  0  0  0  0  0  0  0  0  0  0
    2.1660    8.7290   54.8430 C   0  0  0  0  0  0  0  0  0  0  0  0
    3.6900    9.0960   52.9880 C   0  0  0  0  0  0  0  0  0  0  0  0
    5.6340   13.2890   56.5000 C   0  0  0  0  0  0  0  0  0  0  0  0
    5.3680   11.2160   57.6490 C   0  0  0  0  0  0  0  0  0  0  0  0
    1.7900    7.6220   52.7340 C   0  0  0  0  0  0  0  0  0  0  0  0
    6.0130   13.1850   58.8850 C   0  0  0  0  0  0  0  0  0  0  0  0
    1.7730    2.5350   49.2780 C   0  0  0  0  0  0  0  0  0  0  0  0
    3.3530    9.2520   54.3300 C   0  0  0  0  0  0  0  0  0  0  0  0
    5.4240   11.9200   56.4380 C   0  0  0  0  0  0  0  0  0  0  0  0
    1.0970    6.6080   51.9660 C   0  0  0  0  0  0  0  0  0  0  0  0
    6.4690   13.8820   60.1510 C   0  0  0  0  0  0  0  0  0  0  0  0
    5.1600    8.6700   55.6170 C   0  0  0  0  0  0  0  0  0  0  0  0
    2.3630    3.8750   49.6710 C   0  0  0  0  0  0  0  0  0  0  0  0
    1.3200    4.7510   50.3550 C   0  0  0  0  0  0  0  0  0  0  0  0
    1.8480    5.8870   51.0700 N   0  0  0  0  0  0  0  0  0  0  0  0
    4.2640    9.7780   55.2240 N   0  0  0  0  0  0  0  0  0  0  0  0
   -0.0900    6.3350   52.1250 O   0  0  0  0  0  0  0  0  0  0  0  0
    4.3770   12.0770   54.0400 O   0  0  0  0  0  0  0  0  0  0  0  0
    6.3570   10.7750   54.2090 O   0  0  0  0  0  0  0  0  0  0  0  0
    5.1380   11.1660   54.8150 S   0  0  0  0  0  0  0  0  0  0  0  0
  1  2  2  0
  1  3  1  0
  2  6  1  0
  3  7  2  0
  4 10  2  0
  4 14  1  0
  5 11  1  0
  5 14  2  0
  6 16  2  0
  7 16  1  0
  8 12  2  0
  8 15  1  0
  9 13  1  0
  9 15  2  0
 10 17  1  0
 11 17  2  0
 12 18  1  0
 13 18  2  0
 14 19  1  0
 15 20  1  0
 16 22  1  0
 17 25  1  0
 18 29  1  0
 19 24  1  0
 19 26  2  0
 21 25  1  0
 22 23  1  0
 23 24  1  0
 25 29  1  0
 27 29  2  0
 28 29  2  0
M  END
>  <washed_aromatic_smiles>  (471) 
Cc1ccc(cc1)S(=O)(=O)N(C)c2ccc(cc2)C(=O)NCCc3ccccc3

>  <name>  (471) 
neg48436

$$$$
neg45891
     RDKit          3D

 29 31  0  0  0  0  0  0  0  0999 V2000
    3.0930    4.3110   49.0020 C   0  0  0  0  0  0  0  0  0  0  0  0
    2.0740    3.6910   49.7170 C   0  0  0  0  0  0  0  0  0  0  0  0
    3.4780    5.6050   49.3350 C   0  0  0  0  0  0  0  0  0  0  0  0
    5.7550   13.2460   57.1660 C   0  0  0  0  0  0  0  0  0  0  0  0
    4.4750   11.2380   57.4680 C   0  0  0  0  0  0  0  0  0  0  0  0
    3.9140    7.8750   53.5600 C   0  0  0  0  0  0  0  0  0  0  0  0
    2.4860    9.6240   52.8120 C   0  0  0  0  0  0  0  0  0  0  0  0
    1.4270    4.3780   50.7390 C   0  0  0  0  0  0  0  0  0  0  0  0
    2.8370    6.2900   50.3550 C   0  0  0  0  0  0  0  0  0  0  0  0
    2.9550    6.9400   53.2730 C   0  0  0  0  0  0  0  0  0  0  0  0
    1.4660    8.6920   52.6070 C   0  0  0  0  0  0  0  0  0  0  0  0
    5.4950   13.1960   55.8040 C   0  0  0  0  0  0  0  0  0  0  0  0
    4.2200   11.1980   56.1030 C   0  0  0  0  0  0  0  0  0  0  0  0
    5.3050   12.2230   57.9890 C   0  0  0  0  0  0  0  0  0  0  0  0
    3.7560    9.2440   53.2540 C   0  0  0  0  0  0  0  0  0  0  0  0
    1.7800    5.6840   51.0410 C   0  0  0  0  0  0  0  0  0  0  0  0
    1.7680    7.3420   52.7060 C   0  0  0  0  0  0  0  0  0  0  0  0
    4.8070   12.1360   55.2510 C   0  0  0  0  0  0  0  0  0  0  0  0
    6.5120    8.7290   54.4410 C   0  0  0  0  0  0  0  0  0  0  0  0
    5.7600   12.1580   59.4190 C   0  0  0  0  0  0  0  0  0  0  0  0
    5.7580    7.9330   56.8140 C   0  0  0  0  0  0  0  0  0  0  0  0
    6.2710    9.9040   53.6100 C   0  0  0  0  0  0  0  0  0  0  0  0
    5.9230    8.8160   55.6650 N   0  0  0  0  0  0  0  0  0  0  0  0
    4.8910   10.2400   53.2990 N   0  0  0  0  0  0  0  0  0  0  0  0
    7.0750    7.8110   53.8780 O   0  0  0  0  0  0  0  0  0  0  0  0
    3.8970   12.5430   52.8300 O   0  0  0  0  0  0  0  0  0  0  0  0
    6.2210   12.4400   53.0730 O   0  0  0  0  0  0  0  0  0  0  0  0
    1.0530    6.3720   52.0420 O   0  0  0  0  0  0  0  0  0  0  0  0
    4.9530   11.9290   53.4750 S   0  0  0  0  0  0  0  0  0  0  0  0
  1  2  2  0
  1  3  1  0
  2  8  1  0
  3  9  2  0
  4 12  2  0
  4 14  1  0
  5 13  1  0
  5 14  2  0
  6 10  2  0
  6 15  1  0
  7 11  1  0
  7 15  2  0
  8 16  2  0
  9 16  1  0
 10 17  1  0
 11 17  2  0
 12 18  1  0
 13 18  2  0
 14 20  1  0
 15 24  1  0
 16 28  1  0
 17 28  1  0
 18 29  1  0
 19 22  1  0
 19 23  1  0
 19 25  2  0
 21 23  1  0
 22 24  1  0
 24 29  1  0
 26 29  2  0
 27 29  2  0
M  END
>  <washed_aromatic_smiles>  (472) 
Cc1ccc(cc1)S(=O)(=O)N(CC(=O)NC)c2ccc(cc2)Oc3ccccc3

>  <name>  (472) 
neg45891

$$$$
neg16761
     RDKit          3D

 27 29  0  0  0  0  0  0  0  0999 V2000
    3.4230   -0.5300   55.3040 C   0  0  0  0  0  0  0  0  0  0  0  0
    3.2140    0.8330   55.4020 C   0  0  0  0  0  0  0  0  0  0  0  0
    3.2070   -1.1660   54.0870 C   0  0  0  0  0  0  0  0  0  0  0  0
    0.6410    1.7700   47.3770 C   0  0  0  0  0  0  0  0  0  0  0  0
    1.0900   -0.5540   47.7190 C   0  0  0  0  0  0  0  0  0  0  0  0
    2.8020    1.5360   54.2850 C   0  0  0  0  0  0  0  0  0  0  0  0
    2.8380   -0.4710   52.9630 C   0  0  0  0  0  0  0  0  0  0  0  0
    0.6130    1.9430   48.7360 C   0  0  0  0  0  0  0  0  0  0  0  0
    0.9680   -0.3940   49.0890 C   0  0  0  0  0  0  0  0  0  0  0  0
    0.9000    0.5270   46.8620 C   0  0  0  0  0  0  0  0  0  0  0  0
    2.5970    0.8890   53.0640 C   0  0  0  0  0  0  0  0  0  0  0  0
    0.7410    0.8680   49.6210 C   0  0  0  0  0  0  0  0  0  0  0  0
    2.8240    5.2270   50.8100 C   0  0  0  0  0  0  0  0  0  0  0  0
    0.7330    6.0790   51.6990 C   0  0  0  0  0  0  0  0  0  0  0  0
    2.8630    7.3160   52.0740 C   0  0  0  0  0  0  0  0  0  0  0  0
    0.1530    7.0650   52.6920 C   0  0  0  0  0  0  0  0  0  0  0  0
    2.0710    8.2900   52.9630 C   0  0  0  0  0  0  0  0  0  0  0  0
    1.0740    0.4180   45.3900 C   0  0  0  0  0  0  0  0  0  0  0  0
    2.2770    3.8090   50.6100 C   0  0  0  0  0  0  0  0  0  0  0  0
    2.8320    2.8020   51.6160 C   0  0  0  0  0  0  0  0  0  0  0  0
    2.1890    6.0730   51.6500 N   0  0  0  0  0  0  0  0  0  0  0  0
    2.1300    1.5550   51.9170 N   0  0  0  0  0  0  0  0  0  0  0  0
    3.8510    5.5310   50.2110 O   0  0  0  0  0  0  0  0  0  0  0  0
   -0.3760    1.9550   51.7290 O   0  0  0  0  0  0  0  0  0  0  0  0
    0.3680   -0.2390   51.9480 O   0  0  0  0  0  0  0  0  0  0  0  0
    0.7090    8.3550   52.5940 O   0  0  0  0  0  0  0  0  0  0  0  0
    0.6120    1.0220   51.4030 S   0  0  0  0  0  0  0  0  0  0  0  0
  1  2  2  0
  1  3  1  0
  2  6  1  0
  3  7  2  0
  4  8  2  0
  4 10  1  0
  5  9  1  0
  5 10  2  0
  6 11  2  0
  7 11  1  0
  8 12  1  0
  9 12  2  0
 10 18  1  0
 11 22  1  0
 12 27  1  0
 13 19  1  0
 13 21  1  0
 13 23  2  0
 14 16  1  0
 14 21  1  0
 15 17  1  0
 15 21  1  0
 16 26  1  0
 17 26  1  0
 19 20  1  0
 20 22  1  0
 22 27  1  0
 24 27  2  0
 25 27  2  0
M  END
>  <washed_aromatic_smiles>  (473) 
Cc1ccc(cc1)S(=O)(=O)N(CCC(=O)N2CCOCC2)c3ccccc3

>  <name>  (473) 
neg16761

$$$$
neg207966
     RDKit          3D

 30 32  0  0  0  0  0  0  0  0999 V2000
    3.1460    6.4060   50.2750 C   0  0  0  0  0  0  0  0  0  0  0  0
    1.5500    5.2730   51.6660 C   0  0  0  0  0  0  0  0  0  0  0  0
    4.9140   11.0120   54.6920 C   0  0  0  0  0  0  0  0  0  0  0  0
    3.7870   10.0970   56.6260 C   0  0  0  0  0  0  0  0  0  0  0  0
    3.1980    5.3220   49.4130 C   0  0  0  0  0  0  0  0  0  0  0  0
    1.6180    4.1660   50.8410 C   0  0  0  0  0  0  0  0  0  0  0  0
    5.4440   12.0310   55.4710 C   0  0  0  0  0  0  0  0  0  0  0  0
    4.3180   11.1090   57.4140 C   0  0  0  0  0  0  0  0  0  0  0  0
    3.6960    6.9680   53.4100 C   0  0  0  0  0  0  0  0  0  0  0  0
    1.9540    8.4440   52.7820 C   0  0  0  0  0  0  0  0  0  0  0  0
    2.4050    6.3460   51.4610 C   0  0  0  0  0  0  0  0  0  0  0  0
    4.0740   10.0370   55.2550 C   0  0  0  0  0  0  0  0  0  0  0  0
    2.6540    7.2700   52.5450 C   0  0  0  0  0  0  0  0  0  0  0  0
    2.4600    4.1890   49.7360 C   0  0  0  0  0  0  0  0  0  0  0  0
    5.1540   12.0760   56.8350 C   0  0  0  0  0  0  0  0  0  0  0  0
    3.4990    9.0140   54.4040 C   0  0  0  0  0  0  0  0  0  0  0  0
    1.4450    2.9620   47.9990 C   0  0  0  0  0  0  0  0  0  0  0  0
    6.1180   13.0900   58.9010 C   0  0  0  0  0  0  0  0  0  0  0  0
    0.4570   -0.7180   48.7440 C   0  0  0  0  0  0  0  0  0  0  0  0
    8.8550   15.4170   60.4430 C   0  0  0  0  0  0  0  0  0  0  0  0
    0.7780    1.6190   47.7890 C   0  0  0  0  0  0  0  0  0  0  0  0
    6.7230   14.3340   59.5130 C   0  0  0  0  0  0  0  0  0  0  0  0
    0.7870    0.7280   49.0460 C   0  0  0  0  0  0  0  0  0  0  0  0
    8.2580   14.2840   59.6040 C   0  0  0  0  0  0  0  0  0  0  0  0
    4.1140    7.8330   54.3150 N   0  0  0  0  0  0  0  0  0  0  0  0
    2.3950    9.2910   53.6900 N   0  0  0  0  0  0  0  0  0  0  0  0
    2.4450    3.0620   48.9180 N   0  0  0  0  0  0  0  0  0  0  0  0
    5.7240   13.1410   57.5820 N   0  0  0  0  0  0  0  0  0  0  0  0
    1.0660    3.9750   47.4660 O   0  0  0  0  0  0  0  0  0  0  0  0
    6.0290   12.0600   59.5340 O   0  0  0  0  0  0  0  0  0  0  0  0
  1  5  2  0
  1 11  1  0
  2  6  1  0
  2 11  2  0
  3  7  2  0
  3 12  1  0
  4  8  1  0
  4 12  2  0
  5 14  1  0
  6 14  2  0
  7 15  1  0
  8 15  2  0
  9 13  2  0
  9 25  1  0
 10 13  1  0
 10 26  2  0
 11 13  1  0
 12 16  1  0
 14 27  1  0
 15 28  1  0
 16 25  2  0
 16 26  1  0
 17 21  1  0
 17 27  1  0
 17 29  2  0
 18 22  1  0
 18 28  1  0
 18 30  2  0
 19 23  1  0
 20 24  1  0
 21 23  1  0
 22 24  1  0
M  END
>  <washed_aromatic_smiles>  (474) 
CCCC(=O)Nc1ccc(cc1)c2cnc(nc2)c3ccc(cc3)NC(=O)CCC

>  <name>  (474) 
neg207966

$$$$
neg289755
     RDKit          3D

 27 28  0  0  0  0  0  0  0  0999 V2000
    3.5750    0.8130   56.1720 C   0  0  0  0  0  0  0  0  0  0  0  0
    3.6910    6.3050   48.8580 C   0  0  0  0  0  0  0  0  0  0  0  0
    3.4100    5.0530   48.3360 C   0  0  0  0  0  0  0  0  0  0  0  0
    3.7530   -0.4920   55.7550 C   0  0  0  0  0  0  0  0  0  0  0  0
    2.9870    1.7140   55.3100 C   0  0  0  0  0  0  0  0  0  0  0  0
    3.2250    6.6860   50.1040 C   0  0  0  0  0  0  0  0  0  0  0  0
    2.5430    4.2220   48.9970 C   0  0  0  0  0  0  0  0  0  0  0  0
    3.3230   -0.8760   54.4920 C   0  0  0  0  0  0  0  0  0  0  0  0
    2.6910    1.3490   53.9970 C   0  0  0  0  0  0  0  0  0  0  0  0
    2.4520    5.8090   50.8380 C   0  0  0  0  0  0  0  0  0  0  0  0
    2.0870    4.5920   50.2570 C   0  0  0  0  0  0  0  0  0  0  0  0
    2.8260    0.0310   53.5680 C   0  0  0  0  0  0  0  0  0  0  0  0
    0.9590    6.8070   52.5010 C   0  0  0  0  0  0  0  0  0  0  0  0
    1.7290    2.3640   50.9880 C   0  0  0  0  0  0  0  0  0  0  0  0
    3.0060    9.1820   53.2060 C   0  0  0  0  0  0  0  0  0  0  0  0
    0.9070   -0.3960   49.7980 C   0  0  0  0  0  0  0  0  0  0  0  0
    0.9510    7.7020   53.7280 C   0  0  0  0  0  0  0  0  0  0  0  0
    0.7360    1.3140   51.4380 C   0  0  0  0  0  0  0  0  0  0  0  0
    2.2970    8.2790   54.2180 C   0  0  0  0  0  0  0  0  0  0  0  0
    2.1360    6.2040   52.1570 N   0  0  0  0  0  0  0  0  0  0  0  0
    1.3270    3.6590   50.9290 N   0  0  0  0  0  0  0  0  0  0  0  0
    1.1840   -0.0240   51.1880 N   0  0  0  0  0  0  0  0  0  0  0  0
   -0.0390    6.6140   51.8350 O   0  0  0  0  0  0  0  0  0  0  0  0
    2.8870    2.1150   50.7250 O   0  0  0  0  0  0  0  0  0  0  0  0
    3.7110   -0.3290   51.1190 O   0  0  0  0  0  0  0  0  0  0  0  0
    2.3290   -2.0200   52.0780 O   0  0  0  0  0  0  0  0  0  0  0  0
    2.5650   -0.6470   51.9010 S   0  0  0  0  0  0  0  0  0  0  0  0
  1  4  2  0
  1  5  1  0
  2  3  2  0
  2  6  1  0
  3  7  1  0
  4  8  1  0
  5  9  2  0
  6 10  2  0
  7 11  2  0
  8 12  2  0
  9 12  1  0
 10 11  1  0
 10 20  1  0
 11 21  1  0
 12 27  1  0
 13 17  1  0
 13 20  1  0
 13 23  2  0
 14 18  1  0
 14 21  1  0
 14 24  2  0
 15 19  1  0
 16 22  1  0
 17 19  1  0
 18 22  1  0
 22 27  1  0
 25 27  2  0
 26 27  2  0
M  END
>  <washed_aromatic_smiles>  (475) 
CCCC(=O)Nc1ccccc1NC(=O)CN(C)S(=O)(=O)c2ccccc2

>  <name>  (475) 
neg289755

$$$$
neg69492
     RDKit          3D

 30 33  0  0  0  0  0  0  0  0999 V2000
    5.0430   13.6890   54.8640 C   0  0  0  0  0  0  0  0  0  0  0  0
    5.3670   10.9360   58.9420 C   0  0  0  0  0  0  0  0  0  0  0  0
    5.0000   12.8240   53.7790 C   0  0  0  0  0  0  0  0  0  0  0  0
    5.2380    9.5700   58.7300 C   0  0  0  0  0  0  0  0  0  0  0  0
    5.8700   13.1520   55.7800 C   0  0  0  0  0  0  0  0  0  0  0  0
    4.6580   11.5460   57.9730 C   0  0  0  0  0  0  0  0  0  0  0  0
    5.7780   11.7630   54.1190 C   0  0  0  0  0  0  0  0  0  0  0  0
    4.4530    9.4080   57.6280 C   0  0  0  0  0  0  0  0  0  0  0  0
    2.9890    7.9970   52.9090 C   0  0  0  0  0  0  0  0  0  0  0  0
    6.0070   10.4750   53.5090 C   0  0  0  0  0  0  0  0  0  0  0  0
    4.0910    8.1670   56.9830 C   0  0  0  0  0  0  0  0  0  0  0  0
    3.6340   10.1090   53.5220 C   0  0  0  0  0  0  0  0  0  0  0  0
    5.2210    8.1390   53.8960 C   0  0  0  0  0  0  0  0  0  0  0  0
    2.3160    9.0100   55.2790 C   0  0  0  0  0  0  0  0  0  0  0  0
    3.3310    6.9500   54.9790 C   0  0  0  0  0  0  0  0  0  0  0  0
    2.4450    9.1370   53.7010 C   0  0  2  0  0  0  0  0  0  0  0  0
    3.9620    7.1860   53.6390 C   0  0  1  0  0  0  0  0  0  0  0  0
   -0.0670    6.9460   52.2990 C   0  0  0  0  0  0  0  0  0  0  0  0
    3.1490    5.3970   50.4240 C   0  0  0  0  0  0  0  0  0  0  0  0
    1.0170    9.1890   53.0760 C   0  0  0  0  0  0  0  0  0  0  0  0
    4.0500    5.7770   52.9310 C   0  0  0  0  0  0  0  0  0  0  0  0
    0.1930    7.9560   53.4210 C   0  0  0  0  0  0  0  0  0  0  0  0
    2.9900    5.2070   51.9460 C   0  0  0  0  0  0  0  0  0  0  0  0
    4.9920    9.5570   53.4200 N   0  0  0  0  0  0  0  0  0  0  0  0
    3.2680    8.0890   55.8550 N   0  0  0  0  0  0  0  0  0  0  0  0
    3.0210    8.0440   51.7170 O   0  0  0  0  0  0  0  0  0  0  0  0
    7.1070   10.1390   53.1560 O   0  0  0  0  0  0  0  0  0  0  0  0
    4.5690    7.1150   57.4080 O   0  0  0  0  0  0  0  0  0  0  0  0
    6.3170   11.9900   55.3380 O   0  0  0  0  0  0  0  0  0  0  0  0
    4.0930   10.6360   57.1660 O   0  0  0  0  0  0  0  0  0  0  0  0
  1  3  1  0
  1  5  2  0
  2  4  1  0
  2  6  2  0
  3  7  2  0
  4  8  2  0
  5 29  1  0
  6 30  1  0
  7 10  1  0
  7 29  1  0
  8 11  1  0
  8 30  1  0
  9 16  1  0
  9 17  1  0
  9 26  2  0
 10 24  1  0
 10 27  2  0
 11 25  1  0
 11 28  2  0
 12 16  1  0
 12 24  1  0
 13 17  1  0
 13 24  1  0
 14 16  1  0
 14 25  1  0
 15 17  1  0
 15 25  1  0
 16 20  1  6
 17 21  1  6
 18 22  1  0
 19 23  1  0
 20 22  1  0
 21 23  1  0
M  END
>  <washed_aromatic_smiles>  (476) 
CCCC12CN(CC(C1=O)(CN(C2)C(=O)c3ccco3)CCC)C(=O)c4ccco4

>  <name>  (476) 
neg69492

$$$$
neg249860
     RDKit          3D

 26 26  0  0  0  0  0  0  0  0999 V2000
   -0.9380    0.1990   50.4030 C   0  0  0  0  0  0  0  0  0  0  0  0
   -0.2220    0.1910   48.1160 C   0  0  0  0  0  0  0  0  0  0  0  0
    0.2680    0.6960   50.8330 C   0  0  0  0  0  0  0  0  0  0  0  0
    0.9930    0.6510   48.5430 C   0  0  0  0  0  0  0  0  0  0  0  0
   -1.1740   -0.0910   49.0630 C   0  0  0  0  0  0  0  0  0  0  0  0
    1.2450    0.9180   49.8900 C   0  0  0  0  0  0  0  0  0  0  0  0
    0.6130    7.3590   53.1240 C   0  0  0  0  0  0  0  0  0  0  0  0
    5.6480   12.5090   54.7480 C   0  0  0  0  0  0  0  0  0  0  0  0
   -3.5530   -0.9810   49.3740 C   0  0  0  0  0  0  0  0  0  0  0  0
    0.2940    6.2460   52.1580 C   0  0  0  0  0  0  0  0  0  0  0  0
    5.8390   12.0190   53.3020 C   0  0  0  0  0  0  0  0  0  0  0  0
    1.6410    5.7710   51.6190 C   0  0  0  0  0  0  0  0  0  0  0  0
    5.6020   10.5110   53.0780 C   0  0  0  0  0  0  0  0  0  0  0  0
    1.5720    5.0710   50.2790 C   0  0  0  0  0  0  0  0  0  0  0  0
    4.1510   10.2290   53.4440 C   0  0  0  0  0  0  0  0  0  0  0  0
    3.0340    5.0790   49.7780 C   0  0  0  0  0  0  0  0  0  0  0  0
    3.4270    9.0070   52.8730 C   0  0  0  0  0  0  0  0  0  0  0  0
    1.9550    9.3550   53.0990 C   0  0  0  0  0  0  0  0  0  0  0  0
    3.3330    4.0700   48.6920 C   0  0  0  0  0  0  0  0  0  0  0  0
    1.0430    8.4390   52.5160 N   0  0  0  0  0  0  0  0  0  0  0  0
    2.7000    2.7890   48.9190 N   0  0  0  0  0  0  0  0  0  0  0  0
    0.7330    7.1870   54.3260 O   0  0  0  0  0  0  0  0  0  0  0  0
    2.5070    2.5380   51.4800 O   0  0  0  0  0  0  0  0  0  0  0  0
    3.7890    0.8750   50.3330 O   0  0  0  0  0  0  0  0  0  0  0  0
   -2.3680   -0.6120   48.6350 O   0  0  0  0  0  0  0  0  0  0  0  0
    2.7050    1.7930   50.2860 S   0  0  0  0  0  0  0  0  0  0  0  0
  1  3  2  0
  1  5  1  0
  2  4  1  0
  2  5  2  0
  3  6  1  0
  4  6  2  0
  5 25  1  0
  6 26  1  0
  7 10  1  0
  7 20  1  0
  7 22  2  0
  8 11  1  0
  9 25  1  0
 10 12  1  0
 11 13  1  0
 12 14  1  0
 13 15  1  0
 14 16  1  0
 15 17  1  0
 16 19  1  0
 17 18  1  0
 18 20  1  0
 19 21  1  0
 21 26  1  0
 23 26  2  0
 24 26  2  0
M  END
>  <washed_aromatic_smiles>  (477) 
CCCCCCNC(=O)CCCCCNS(=O)(=O)c1ccc(cc1)OC

>  <name>  (477) 
neg249860

$$$$
neg294991
     RDKit          3D

 26 26  0  0  0  0  0  0  0  0999 V2000
    1.3230    1.7940   48.6630 C   0  0  0  0  0  0  0  0  0  0  0  0
    1.5390    1.2960   51.0090 C   0  0  0  0  0  0  0  0  0  0  0  0
    1.8950    2.0450   49.9040 C   0  0  0  0  0  0  0  0  0  0  0  0
    0.2350    0.9360   48.5770 C   0  0  0  0  0  0  0  0  0  0  0  0
    0.3920    0.5390   50.9660 C   0  0  0  0  0  0  0  0  0  0  0  0
   -0.3410    0.4470   49.7720 C   0  0  0  0  0  0  0  0  0  0  0  0
    2.6890    3.2020   50.1640 C   0  0  0  0  0  0  0  0  0  0  0  0
    2.9520    6.3440   51.6670 C   0  0  0  0  0  0  0  0  0  0  0  0
    5.3920   12.0070   54.3050 C   0  0  0  0  0  0  0  0  0  0  0  0
    0.5420    0.8570   46.0960 C   0  0  0  0  0  0  0  0  0  0  0  0
    1.0150   -0.3860   53.1730 C   0  0  0  0  0  0  0  0  0  0  0  0
   -2.6030   -0.5030   48.8910 C   0  0  0  0  0  0  0  0  0  0  0  0
    3.4320    6.2340   50.2030 C   0  0  0  0  0  0  0  0  0  0  0  0
    4.8420   10.7020   53.7190 C   0  0  0  0  0  0  0  0  0  0  0  0
    4.3940    9.7250   54.8210 C   0  0  0  0  0  0  0  0  0  0  0  0
    3.6640    8.4910   54.2630 C   0  0  0  0  0  0  0  0  0  0  0  0
    2.2270    8.7790   53.7840 C   0  0  0  0  0  0  0  0  0  0  0  0
    2.6080    5.3840   49.2470 C   0  0  0  0  0  0  0  0  0  0  0  0
    1.4780    7.5530   53.2450 C   0  0  0  0  0  0  0  0  0  0  0  0
    3.0270    4.0140   49.1330 N   0  0  0  0  0  0  0  0  0  0  0  0
    1.9480    7.1880   51.9170 N   0  0  0  0  0  0  0  0  0  0  0  0
    2.9210    3.5350   51.3090 O   0  0  0  0  0  0  0  0  0  0  0  0
    3.5630    5.7840   52.5770 O   0  0  0  0  0  0  0  0  0  0  0  0
   -0.2710    0.6680   47.3100 O   0  0  0  0  0  0  0  0  0  0  0  0
    0.0050   -0.0270   52.1520 O   0  0  0  0  0  0  0  0  0  0  0  0
   -1.6680    0.0550   49.8750 O   0  0  0  0  0  0  0  0  0  0  0  0
  1  3  2  0
  1  4  1  0
  2  3  1  0
  2  5  2  0
  3  7  1  0
  4  6  2  0
  4 24  1  0
  5  6  1  0
  5 25  1  0
  6 26  1  0
  7 20  1  0
  7 22  2  0
  8 13  1  0
  8 21  1  0
  8 23  2  0
  9 14  1  0
 10 24  1  0
 11 25  1  0
 12 26  1  0
 13 18  1  0
 14 15  1  0
 15 16  1  0
 16 17  1  0
 17 19  1  0
 18 20  1  0
 19 21  1  0
M  END
>  <washed_aromatic_smiles>  (478) 
CCCCCCNC(=O)CCNC(=O)c1cc(c(c(c1)OC)OC)OC

>  <name>  (478) 
neg294991

$$$$
neg97004
     RDKit          3D

 29 31  0  0  0  0  0  0  0  0999 V2000
    3.6370    5.4550   53.1980 C   0  0  0  0  0  0  0  0  0  0  0  0
    2.1880    6.1720   51.0480 C   0  0  0  0  0  0  0  0  0  0  0  0
    3.4630    6.8210   53.0060 C   0  0  0  0  0  0  0  0  0  0  0  0
    2.4930    7.0820   52.0670 C   0  0  0  0  0  0  0  0  0  0  0  0
    2.5080    4.8320   51.1440 C   0  0  0  0  0  0  0  0  0  0  0  0
    3.0900    4.4930   52.3560 C   0  0  0  0  0  0  0  0  0  0  0  0
    2.3460    9.3410   52.7630 C   0  0  0  0  0  0  0  0  0  0  0  0
    4.0860    7.9630   53.6750 C   0  0  0  0  0  0  0  0  0  0  0  0
    3.5610    9.2690   53.3940 C   0  0  0  0  0  0  0  0  0  0  0  0
    4.2450   10.4610   53.8590 C   0  0  0  0  0  0  0  0  0  0  0  0
    1.6020    4.4670   48.8640 C   0  0  0  0  0  0  0  0  0  0  0  0
    1.8560    2.4730   50.4060 C   0  0  0  0  0  0  0  0  0  0  0  0
    1.3370    3.4820   47.7290 C   0  0  0  0  0  0  0  0  0  0  0  0
    1.5130    1.5700   49.2110 C   0  0  0  0  0  0  0  0  0  0  0  0
    5.6910    8.3030   57.5650 C   0  0  0  0  0  0  0  0  0  0  0  0
   -0.3010    6.7340   52.1940 C   0  0  0  0  0  0  0  0  0  0  0  0
    0.3390    1.3020   47.0080 C   0  0  0  0  0  0  0  0  0  0  0  0
    5.3430    9.2950   58.6780 C   0  0  0  0  0  0  0  0  0  0  0  0
    4.4250   10.4460   58.2140 C   0  0  0  0  0  0  0  0  0  0  0  0
    5.1400   11.5140   57.3620 C   0  0  0  0  0  0  0  0  0  0  0  0
    0.2850    8.1120   52.5270 C   0  0  0  0  0  0  0  0  0  0  0  0
    4.5460   11.7470   55.9820 C   0  0  0  0  0  0  0  0  0  0  0  0
    1.7280    8.2050   52.3610 N   0  0  0  0  0  0  0  0  0  0  0  0
    2.2070    3.8940   50.0870 N   0  0  0  0  0  0  0  0  0  0  0  0
    0.6810    2.2130   48.1550 N   0  0  0  0  0  0  0  0  0  0  0  0
    4.5320   10.5180   55.2000 N   0  0  0  0  0  0  0  0  0  0  0  0
    5.0680    7.8740   54.4060 O   0  0  0  0  0  0  0  0  0  0  0  0
    4.4940   11.4490   53.1670 O   0  0  0  0  0  0  0  0  0  0  0  0
    3.0980    3.2070   52.7440 F   0  0  0  0  0  0  0  0  0  0  0  0
  1  3  2  0
  1  6  1  0
  2  4  2  0
  2  5  1  0
  3  4  1  0
  3  8  1  0
  4 23  1  0
  5  6  2  0
  5 24  1  0
  6 29  1  0
  7  9  2  0
  7 23  1  0
  8  9  1  0
  8 27  2  0
  9 10  1  0
 10 26  1  0
 10 28  2  0
 11 13  1  0
 11 24  1  0
 12 14  1  0
 12 24  1  0
 13 25  1  0
 14 25  1  0
 15 18  1  0
 16 21  1  0
 17 25  1  0
 18 19  1  0
 19 20  1  0
 20 22  1  0
 21 23  1  0
 22 26  1  0
M  CHG  1  25   1
M  END
>  <washed_aromatic_smiles>  (479) 
CCCCCNC(=O)c1cn(c2cc(c(cc2c1=O)F)N3CCN(CC3)C)CC

>  <name>  (479) 
neg97004

$$$$
neg127718
     RDKit          3D

 25 27  0  0  0  0  0  0  0  0999 V2000
    2.9300    6.7250   52.8460 C   0  0  0  0  0  0  0  0  0  0  0  0
    2.8970    8.2890   54.8280 C   0  0  0  0  0  0  0  0  0  0  0  0
    3.4620    3.5590   48.2820 C   0  0  0  0  0  0  0  0  0  0  0  0
    1.6720    4.9250   48.0930 C   0  0  0  0  0  0  0  0  0  0  0  0
    1.2340    2.9100   49.2330 C   0  0  0  0  0  0  0  0  0  0  0  0
    3.5550    5.5600   49.8330 C   0  0  0  0  0  0  0  0  0  0  0  0
    2.8720    3.2600   50.8950 C   0  0  0  0  0  0  0  0  0  0  0  0
    1.3680    5.0930   50.6910 C   0  0  0  0  0  0  0  0  0  0  0  0
    3.1530    5.0320   48.4320 C   0  0  1  0  0  0  0  0  0  0  0  0
    2.7320    2.7490   49.4280 C   0  0  2  0  0  0  0  0  0  0  0  0
    1.0010    4.4580   49.3430 C   0  0  1  0  0  0  0  0  0  0  0  0
    2.8350    4.8380   51.0030 C   0  0  2  0  0  0  0  0  0  0  0  0
    5.3230   12.9050   56.9500 C   0  0  0  0  0  0  0  0  0  0  0  0
    5.4810    8.9370   58.0230 C   0  0  0  0  0  0  0  0  0  0  0  0
    4.5520   12.5550   55.6780 C   0  0  0  0  0  0  0  0  0  0  0  0
    4.5220   11.0390   55.4300 C   0  0  0  0  0  0  0  0  0  0  0  0
    3.5030   10.2180   56.2790 C   0  0  0  0  0  0  0  0  0  0  0  0
    3.3170    7.0920   54.1700 N   0  0  0  0  0  0  0  0  0  0  0  0
    3.2110    5.4210   52.3810 N   0  0  0  0  0  0  0  0  0  0  0  0
    3.5470    8.7630   55.9980 N   0  0  0  0  0  0  0  0  0  0  0  0
    2.3660    7.5450   52.1330 O   0  0  0  0  0  0  0  0  0  0  0  0
    1.9410    8.9220   54.3920 O   0  0  0  0  0  0  0  0  0  0  0  0
    5.9450    8.2790   55.5480 O   0  0  0  0  0  0  0  0  0  0  0  0
    4.7100    6.7260   56.9360 O   0  0  0  0  0  0  0  0  0  0  0  0
    4.9670    8.0630   56.5460 S   0  0  0  0  0  0  0  0  0  0  0  0
  1 18  1  0
  1 19  1  0
  1 21  2  0
  2 18  1  0
  2 20  1  0
  2 22  2  0
  9  3  1  1
 10  3  1  6
  4  9  1  0
 11  4  1  6
  5 10  1  0
  5 11  1  0
  6  9  1  0
  6 12  1  0
  7 10  1  0
  7 12  1  0
  8 11  1  0
  8 12  1  0
 12 19  1  1
 13 15  1  0
 14 25  1  0
 15 16  1  0
 16 17  1  0
 17 20  1  0
 20 25  1  0
 23 25  2  0
 24 25  2  0
M  END
>  <washed_aromatic_smiles>  (480) 
CCCCN(C(=O)NC(=O)NC12CC3CC(C1)CC(C3)C2)S(=O)(=O)C

>  <name>  (480) 
neg127718

$$$$
neg251527
     RDKit          3D

 32 33  0  0  0  0  0  0  0  0999 V2000
    1.1130    3.0940   48.2050 C   0  0  0  0  0  0  0  0  0  0  0  0
    1.7150    1.6450   50.0330 C   0  0  0  0  0  0  0  0  0  0  0  0
    3.9110    6.7510   53.3520 C   0  0  0  0  0  0  0  0  0  0  0  0
    2.1300    8.1240   52.5280 C   0  0  0  0  0  0  0  0  0  0  0  0
    1.1400    4.1810   49.0610 C   0  0  0  0  0  0  0  0  0  0  0  0
    1.7580    2.7490   50.8800 C   0  0  0  0  0  0  0  0  0  0  0  0
    4.5620    7.8710   53.8180 C   0  0  0  0  0  0  0  0  0  0  0  0
    2.8280    9.2500   52.9190 C   0  0  0  0  0  0  0  0  0  0  0  0
    1.3020    1.8160   48.7100 C   0  0  0  0  0  0  0  0  0  0  0  0
    2.6880    6.8310   52.7050 C   0  0  0  0  0  0  0  0  0  0  0  0
    1.3320    4.0110   50.4370 C   0  0  0  0  0  0  0  0  0  0  0  0
    4.0350    9.1370   53.6080 C   0  0  0  0  0  0  0  0  0  0  0  0
    1.1270   -0.5840   48.0160 C   0  0  0  0  0  0  0  0  0  0  0  0
    1.6830   -1.3750   46.8450 C   0  0  0  0  0  0  0  0  0  0  0  0
   -0.1610    8.6580   56.4990 C   0  0  0  0  0  0  0  0  0  0  0  0
    5.5080   12.3450   57.7470 C   0  0  0  0  0  0  0  0  0  0  0  0
    1.0270    8.6720   55.4730 C   0  0  0  0  0  0  0  0  0  0  0  0
    5.2960   11.1990   58.7530 C   0  0  0  0  0  0  0  0  0  0  0  0
    2.3910    8.8350   56.2100 C   0  0  0  0  0  0  0  0  0  0  0  0
    5.4550    9.7150   58.3190 C   0  0  0  0  0  0  0  0  0  0  0  0
    3.0940   10.1810   56.4700 C   0  0  0  0  0  0  0  0  0  0  0  0
    5.3060    9.3160   56.8330 C   0  0  0  0  0  0  0  0  0  0  0  0
    1.0920    0.7640   47.7880 N   0  0  0  0  0  0  0  0  0  0  0  0
    2.2210    5.6760   52.3010 N   0  0  0  0  0  0  0  0  0  0  0  0
    4.5060   10.2330   56.0010 N   0  0  0  0  0  0  0  0  0  0  0  0
    0.8740   -1.0550   49.1040 O   0  0  0  0  0  0  0  0  0  0  0  0
   -0.1870    5.1600   52.3820 O   0  0  0  0  0  0  0  0  0  0  0  0
    0.6080    6.4700   50.6700 O   0  0  0  0  0  0  0  0  0  0  0  0
    6.2880   10.2420   54.1410 O   0  0  0  0  0  0  0  0  0  0  0  0
    4.4050   11.7120   53.8900 O   0  0  0  0  0  0  0  0  0  0  0  0
    0.8910    5.4150   51.5030 S   0  0  2  0  0  0  0  0  0  0  0  0
    4.9000   10.4630   54.3670 S   0  0  0  0  0  0  0  0  0  0  0  0
  1  5  2  0
  1  9  1  0
  2  6  1  0
  2  9  2  0
  3  7  2  0
  3 10  1  0
  4  8  1  0
  4 10  2  0
  5 11  1  0
  6 11  2  0
  7 12  1  0
  8 12  2  0
  9 23  1  0
 10 24  1  0
 11 31  1  0
 12 32  1  0
 13 14  1  0
 13 23  1  0
 13 26  2  0
 15 17  1  0
 16 18  1  0
 17 19  1  0
 18 20  1  0
 19 21  1  0
 20 22  1  0
 21 25  1  0
 22 25  1  0
 24 31  2  0
 25 32  1  0
 27 31  2  0
 31 28  1  6
 29 32  2  0
 30 32  2  0
M  CHG  1  28  -1
M  END
>  <washed_aromatic_smiles>  (481) 
CCCCN(CCCC)S(=O)(=O)c1ccc(cc1)NS(=O)(=O)c2ccc(cc2)NC(=O)C

>  <name>  (481) 
neg251527

$$$$
neg105757
     RDKit          3D

 30 32  0  0  0  0  0  0  0  0999 V2000
    0.2350    1.1690   47.8650 C   0  0  0  0  0  0  0  0  0  0  0  0
    2.9470   -0.3780   53.5980 C   0  0  0  0  0  0  0  0  0  0  0  0
    0.0510    0.8040   49.1900 C   0  0  0  0  0  0  0  0  0  0  0  0
    1.0730    2.2300   47.5560 C   0  0  0  0  0  0  0  0  0  0  0  0
    3.0760   -0.5310   52.2250 C   0  0  0  0  0  0  0  0  0  0  0  0
    2.8760    0.8960   54.1330 C   0  0  0  0  0  0  0  0  0  0  0  0
    0.7110    1.4960   50.1950 C   0  0  0  0  0  0  0  0  0  0  0  0
    1.7740    2.8980   48.5550 C   0  0  0  0  0  0  0  0  0  0  0  0
    3.1160    0.5810   51.3920 C   0  0  0  0  0  0  0  0  0  0  0  0
    2.8700    1.9960   53.2850 C   0  0  0  0  0  0  0  0  0  0  0  0
    1.6330    2.5080   49.8840 C   0  0  0  0  0  0  0  0  0  0  0  0
    2.9160    1.8660   51.9060 C   0  0  0  0  0  0  0  0  0  0  0  0
    1.5810    8.2600   52.9520 C   0  0  0  0  0  0  0  0  0  0  0  0
    3.4980    8.2160   55.4950 C   0  0  0  0  0  0  0  0  0  0  0  0
    0.5410    6.1710   52.0900 C   0  0  0  0  0  0  0  0  0  0  0  0
    2.7350    6.8880   51.3150 C   0  0  0  0  0  0  0  0  0  0  0  0
    0.9500    4.9270   51.2730 C   0  0  0  0  0  0  0  0  0  0  0  0
    3.3000    5.4650   51.4820 C   0  0  0  0  0  0  0  0  0  0  0  0
    5.2020   12.4480   53.2840 C   0  0  0  0  0  0  0  0  0  0  0  0
    1.0960    8.1370   54.3890 C   0  0  0  0  0  0  0  0  0  0  0  0
    2.0770    8.7710   55.4130 C   0  0  0  0  0  0  0  0  0  0  0  0
    5.0010   10.9350   53.1610 C   0  0  0  0  0  0  0  0  0  0  0  0
    5.8430   10.2130   54.2160 C   0  0  0  0  0  0  0  0  0  0  0  0
    5.6500    8.7000   54.3920 C   0  0  0  0  0  0  0  0  0  0  0  0
    2.5990    3.0440   50.9490 C   0  0  0  0  0  0  0  0  0  0  0  0
    1.6070    7.1560   52.1840 N   0  0  0  0  0  0  0  0  0  0  0  0
    2.2670    4.3910   51.6060 N   0  0  0  0  0  0  0  0  0  0  0  0
    4.2360    8.3860   54.3960 N   0  0  0  0  0  0  0  0  0  0  0  0
    2.1110    9.3130   52.6160 O   0  0  0  0  0  0  0  0  0  0  0  0
    3.9670    7.8770   56.5810 O   0  0  0  0  0  0  0  0  0  0  0  0
  1  3  2  0
  1  4  1  0
  2  5  2  0
  2  6  1  0
  3  7  1  0
  4  8  2  0
  5  9  1  0
  6 10  2  0
  7 11  2  0
  8 11  1  0
  9 12  2  0
 10 12  1  0
 11 25  1  0
 12 25  1  0
 13 20  1  0
 13 26  1  0
 13 29  2  0
 14 21  1  0
 14 28  1  0
 14 30  2  0
 15 17  1  0
 15 26  1  0
 16 18  1  0
 16 26  1  0
 17 27  1  0
 18 27  1  0
 19 22  1  0
 20 21  1  0
 22 23  1  0
 23 24  1  0
 24 28  1  0
 25 27  1  0
M  END
>  <washed_aromatic_smiles>  (482) 
CCCCNC(=O)CCC(=O)N1CCN(CC1)C(c2ccccc2)c3ccccc3

>  <name>  (482) 
neg105757

$$$$
neg23954
     RDKit          3D

 27 28  0  0  0  0  0  0  0  0999 V2000
    3.8460    9.4070   57.2660 C   0  0  0  0  0  0  0  0  0  0  0  0
    2.5430    9.2140   56.8160 C   0  0  0  0  0  0  0  0  0  0  0  0
    3.1740   -0.7530   50.7370 C   0  0  0  0  0  0  0  0  0  0  0  0
    4.9160    9.2510   56.3890 C   0  0  0  0  0  0  0  0  0  0  0  0
    1.9270   -0.8240   50.1280 C   0  0  0  0  0  0  0  0  0  0  0  0
    3.4010    0.0940   51.7890 C   0  0  0  0  0  0  0  0  0  0  0  0
    2.3020    8.8920   55.4910 C   0  0  0  0  0  0  0  0  0  0  0  0
    4.6960    8.9210   55.0540 C   0  0  0  0  0  0  0  0  0  0  0  0
    1.0020    0.1620   50.3810 C   0  0  0  0  0  0  0  0  0  0  0  0
    2.4220    0.9550   52.1980 C   0  0  0  0  0  0  0  0  0  0  0  0
    3.3750    8.7510   54.6190 C   0  0  0  0  0  0  0  0  0  0  0  0
    1.3290    1.1070   51.3430 C   0  0  0  0  0  0  0  0  0  0  0  0
    3.0810    7.1390   52.8050 C   0  0  0  0  0  0  0  0  0  0  0  0
    1.4760    4.7600   51.1650 C   0  0  0  0  0  0  0  0  0  0  0  0
    5.8630    8.7400   54.1130 C   0  0  0  0  0  0  0  0  0  0  0  0
   -0.2100    0.2890   49.4970 C   0  0  0  0  0  0  0  0  0  0  0  0
    2.6840    1.6810   53.4840 C   0  0  0  0  0  0  0  0  0  0  0  0
    3.3140    3.7770   47.8410 C   0  0  0  0  0  0  0  0  0  0  0  0
    2.4980    6.9670   51.4280 C   0  0  0  0  0  0  0  0  0  0  0  0
    1.5520    3.3290   50.6120 C   0  0  0  0  0  0  0  0  0  0  0  0
    2.9350    5.1290   48.4570 C   0  0  0  0  0  0  0  0  0  0  0  0
    3.4840    5.3150   49.8680 C   0  0  0  0  0  0  0  0  0  0  0  0
    3.0610    8.4210   53.2870 N   0  0  0  0  0  0  0  0  0  0  0  0
    2.4770    5.6120   50.8720 N   0  0  0  0  0  0  0  0  0  0  0  0
    3.5480    6.2330   53.4650 O   0  0  0  0  0  0  0  0  0  0  0  0
    0.5080    5.1680   51.8010 O   0  0  0  0  0  0  0  0  0  0  0  0
    0.7250    2.2920   51.2440 O   0  0  0  0  0  0  0  0  0  0  0  0
  1  2  2  0
  1  4  1  0
  2  7  1  0
  3  5  2  0
  3  6  1  0
  4  8  2  0
  5  9  1  0
  6 10  2  0
  7 11  2  0
  8 11  1  0
  8 15  1  0
  9 12  2  0
  9 16  1  0
 10 12  1  0
 10 17  1  0
 11 23  1  0
 12 27  1  0
 13 19  1  0
 13 23  1  0
 13 25  2  0
 14 20  1  0
 14 24  1  0
 14 26  2  0
 18 21  1  0
 19 24  1  0
 20 27  1  0
 21 22  1  0
 22 24  1  0
M  END
>  <washed_aromatic_smiles>  (483) 
CCCN(CC(=O)Nc1ccccc1C)C(=O)COc2c(cccc2C)C

>  <name>  (483) 
neg23954

$$$$
neg90791
     RDKit          3D

 26 28  0  0  0  0  0  0  0  0999 V2000
    5.6860   12.8780   58.3670 C   0  0  0  0  0  0  0  0  0  0  0  0
    5.3290   13.1460   57.0500 C   0  0  0  0  0  0  0  0  0  0  0  0
    0.5070    7.9780   53.6330 C   0  0  0  0  0  0  0  0  0  0  0  0
    5.6090   11.5810   58.8590 C   0  0  0  0  0  0  0  0  0  0  0  0
    1.0110    8.5530   54.7820 C   0  0  0  0  0  0  0  0  0  0  0  0
    4.8790   12.1230   56.2330 C   0  0  0  0  0  0  0  0  0  0  0  0
    3.2370    7.7990   54.2510 C   0  0  0  0  0  0  0  0  0  0  0  0
    1.3560    7.2160   52.8590 C   0  0  0  0  0  0  0  0  0  0  0  0
    2.6660    7.0740   53.2290 C   0  0  0  0  0  0  0  0  0  0  0  0
    2.3960    8.5790   55.0340 C   0  0  0  0  0  0  0  0  0  0  0  0
    5.2300   10.5090   58.0420 C   0  0  0  0  0  0  0  0  0  0  0  0
    4.7990   10.8270   56.7400 C   0  0  0  0  0  0  0  0  0  0  0  0
    1.1140    6.3260   51.7660 C   0  0  0  0  0  0  0  0  0  0  0  0
    3.2050    5.9890   52.5040 C   0  0  0  0  0  0  0  0  0  0  0  0
    2.9550    9.3960   56.0820 C   0  0  0  0  0  0  0  0  0  0  0  0
    5.3950    9.1340   58.5320 C   0  0  0  0  0  0  0  0  0  0  0  0
    3.5450    5.6970   48.9880 C   0  0  0  0  0  0  0  0  0  0  0  0
    2.4450    4.6760   49.2760 C   0  0  0  0  0  0  0  0  0  0  0  0
    2.3140    4.3450   50.7660 C   0  0  0  0  0  0  0  0  0  0  0  0
    2.2330    5.5210   51.6290 N   0  0  0  0  0  0  0  0  0  0  0  0
    4.2390    9.8660   55.9000 N   0  0  0  0  0  0  0  0  0  0  0  0
    0.1310    6.2470   51.0690 O   0  0  0  0  0  0  0  0  0  0  0  0
    4.2720    5.4970   52.7400 O   0  0  0  0  0  0  0  0  0  0  0  0
    2.3240    9.7210   57.0690 O   0  0  0  0  0  0  0  0  0  0  0  0
    4.5770    8.2190   58.2560 O   0  0  0  0  0  0  0  0  0  0  0  0
    6.4110    8.8670   59.2270 O   0  0  0  0  0  0  0  0  0  0  0  0
  1  2  2  0
  1  4  1  0
  2  6  1  0
  3  5  2  0
  3  8  1  0
  4 11  2  0
  5 10  1  0
  6 12  2  0
  7  9  1  0
  7 10  2  0
  8  9  2  0
  8 13  1  0
  9 14  1  0
 10 15  1  0
 11 12  1  0
 11 16  1  0
 12 21  1  0
 13 20  1  0
 13 22  2  0
 14 20  1  0
 14 23  2  0
 15 21  1  0
 15 24  2  0
 16 25  1  0
 16 26  2  0
 17 18  1  0
 18 19  1  0
 19 20  1  0
M  CHG  1  25  -1
M  END
>  <washed_aromatic_smiles>  (484) 
CCCN1C(=O)c2ccc(cc2C1=O)C(=O)Nc3ccccc3C(=O)O

>  <name>  (484) 
neg90791

$$$$
neg60392
     RDKit          3D

 25 27  0  0  0  0  0  0  0  0999 V2000
    4.2830    8.4360   55.6680 C   0  0  0  0  0  0  0  0  0  0  0  0
    3.7280    7.4250   54.9040 C   0  0  0  0  0  0  0  0  0  0  0  0
    4.5140    9.6920   55.1210 C   0  0  0  0  0  0  0  0  0  0  0  0
    2.9060    3.2080   49.1710 C   0  0  0  0  0  0  0  0  0  0  0  0
    1.2160    4.1250   51.1350 C   0  0  0  0  0  0  0  0  0  0  0  0
    3.5150    8.9180   53.0410 C   0  0  0  0  0  0  0  0  0  0  0  0
    2.9030    4.5490   49.5330 C   0  0  0  0  0  0  0  0  0  0  0  0
    2.2380    2.3040   49.9650 C   0  0  0  0  0  0  0  0  0  0  0  0
    1.2800    2.7550   50.8430 C   0  0  0  0  0  0  0  0  0  0  0  0
    3.3640    7.5890   53.5490 C   0  0  0  0  0  0  0  0  0  0  0  0
    4.1320    9.9080   53.7940 C   0  0  0  0  0  0  0  0  0  0  0  0
    2.1640    4.9910   50.6400 C   0  0  0  0  0  0  0  0  0  0  0  0
    2.0100    0.0520   50.8350 C   0  0  0  0  0  0  0  0  0  0  0  0
    0.9220    0.5220   51.6760 C   0  0  0  0  0  0  0  0  0  0  0  0
    3.7200    5.4550   48.6860 C   0  0  0  0  0  0  0  0  0  0  0  0
    5.1200   12.2200   53.7630 C   0  0  0  0  0  0  0  0  0  0  0  0
    2.5970    0.9620   49.9950 N   0  0  0  0  0  0  0  0  0  0  0  0
    0.4400    1.7770   51.4420 N   0  0  0  0  0  0  0  0  0  0  0  0
    2.9420    6.4990   52.8560 N   0  0  0  0  0  0  0  0  0  0  0  0
    2.4380   -1.0930   50.8320 O   0  0  0  0  0  0  0  0  0  0  0  0
    0.4610   -0.0970   52.6180 O   0  0  0  0  0  0  0  0  0  0  0  0
    0.9110    7.0680   51.5950 O   0  0  0  0  0  0  0  0  0  0  0  0
    3.1250    7.3930   50.5640 O   0  0  0  0  0  0  0  0  0  0  0  0
    4.3700   11.1320   53.1830 O   0  0  0  0  0  0  0  0  0  0  0  0
    2.2630    6.6240   51.4010 S   0  0  2  0  0  0  0  0  0  0  0  0
  1  2  2  0
  1  3  1  0
  2 10  1  0
  3 11  2  0
  4  7  2  0
  4  8  1  0
  5  9  1  0
  5 12  2  0
  6 10  2  0
  6 11  1  0
  7 12  1  0
  7 15  1  0
  8  9  2  0
  8 17  1  0
  9 18  1  0
 10 19  1  0
 11 24  1  0
 12 25  1  0
 13 14  1  0
 13 17  1  0
 13 20  2  0
 14 18  1  0
 14 21  2  0
 16 24  1  0
 19 25  2  0
 22 25  2  0
 25 23  1  6
M  CHG  1  23  -1
M  END
>  <washed_aromatic_smiles>  (485) 
Cc1cc2c(cc1S(=O)(=O)Nc3cccc(c3)OC)[nH]c(=O)c(=O)[nH]2

>  <name>  (485) 
neg60392

$$$$
neg58305
     RDKit          3D

 25 26  0  0  0  0  0  0  0  0999 V2000
    4.8110   10.3950   55.8370 C   0  0  0  0  0  0  0  0  0  0  0  0
    4.9960   10.2910   54.4630 C   0  0  0  0  0  0  0  0  0  0  0  0
    3.6770    9.8480   56.4260 C   0  0  0  0  0  0  0  0  0  0  0  0
    2.9290   -1.1730   52.7990 C   0  0  0  0  0  0  0  0  0  0  0  0
    3.2230   -0.6770   51.5470 C   0  0  0  0  0  0  0  0  0  0  0  0
    4.0450    9.6470   53.6770 C   0  0  0  0  0  0  0  0  0  0  0  0
    2.7280    9.2030   55.6390 C   0  0  0  0  0  0  0  0  0  0  0  0
    1.5210    0.7040   53.2420 C   0  0  0  0  0  0  0  0  0  0  0  0
    1.6900    1.1160   51.9240 C   0  0  0  0  0  0  0  0  0  0  0  0
    2.2600   -0.3690   53.6920 C   0  0  0  0  0  0  0  0  0  0  0  0
    2.6710    0.5200   51.1740 C   0  0  0  0  0  0  0  0  0  0  0  0
    2.8970    9.1010   54.2570 C   0  0  0  0  0  0  0  0  0  0  0  0
    0.8820    2.0230   51.1710 C   0  0  0  0  0  0  0  0  0  0  0  0
    2.8400    5.1830   52.0330 C   0  0  0  0  0  0  0  0  0  0  0  0
    2.4720   -0.6020   55.1350 C   0  0  0  0  0  0  0  0  0  0  0  0
    3.1320    1.2290   49.9730 C   0  0  0  0  0  0  0  0  0  0  0  0
    1.3420    3.5050   50.9300 C   0  0  0  0  0  0  0  0  0  0  0  0
    2.1360    6.3590   51.3920 C   0  0  0  0  0  0  0  0  0  0  0  0
    2.5200    7.6260   51.9940 N   0  0  0  0  0  0  0  0  0  0  0  0
    0.0340    1.4760   50.5020 O   0  0  0  0  0  0  0  0  0  0  0  0
    3.7330    5.3480   52.8610 O   0  0  0  0  0  0  0  0  0  0  0  0
    1.1120    7.2000   54.0350 O   0  0  0  0  0  0  0  0  0  0  0  0
    0.7350    9.2190   52.7700 O   0  0  0  0  0  0  0  0  0  0  0  0
    2.5100    3.9110   51.7170 O   0  0  0  0  0  0  0  0  0  0  0  0
    1.6600    8.2560   53.2580 S   0  0  0  0  0  0  0  0  0  0  0  0
  1  2  2  0
  1  3  1  0
  2  6  1  0
  3  7  2  0
  4  5  2  0
  4 10  1  0
  5 11  1  0
  6 12  2  0
  7 12  1  0
  8  9  1  0
  8 10  2  0
  9 11  2  0
  9 13  1  0
 10 15  1  0
 11 16  1  0
 12 25  1  0
 13 17  1  0
 13 20  2  0
 14 18  1  0
 14 21  2  0
 14 24  1  0
 17 24  1  0
 18 19  1  0
 19 25  1  0
 22 25  2  0
 23 25  2  0
M  END
>  <washed_aromatic_smiles>  (486) 
Cc1ccc(c(c1)C(=O)COC(=O)CNS(=O)(=O)c2ccccc2)C

>  <name>  (486) 
neg58305

$$$$
neg217376
     RDKit          3D

 30 32  0  0  0  0  0  0  0  0999 V2000
    2.2840   -1.2320   52.2040 C   0  0  0  0  0  0  0  0  0  0  0  0
    5.1350    9.6600   58.3810 C   0  0  0  0  0  0  0  0  0  0  0  0
    1.9900   -0.4290   53.2900 C   0  0  0  0  0  0  0  0  0  0  0  0
    2.7440   -0.6750   51.0240 C   0  0  0  0  0  0  0  0  0  0  0  0
    5.3680    8.5680   57.5550 C   0  0  0  0  0  0  0  0  0  0  0  0
    4.8500   10.9020   57.8240 C   0  0  0  0  0  0  0  0  0  0  0  0
    2.1440    0.9370   53.1790 C   0  0  0  0  0  0  0  0  0  0  0  0
    2.9280    0.6930   50.9180 C   0  0  0  0  0  0  0  0  0  0  0  0
    3.3640    5.7510   48.8740 C   0  0  0  0  0  0  0  0  0  0  0  0
    3.1150    6.2620   50.1300 C   0  0  0  0  0  0  0  0  0  0  0  0
    5.3240    8.7230   56.1740 C   0  0  0  0  0  0  0  0  0  0  0  0
    4.8020   11.0540   56.4410 C   0  0  0  0  0  0  0  0  0  0  0  0
    2.6090    3.5800   49.6040 C   0  0  0  0  0  0  0  0  0  0  0  0
    2.5810    1.5340   51.9790 C   0  0  0  0  0  0  0  0  0  0  0  0
    2.6080    3.9960   50.9170 C   0  0  0  0  0  0  0  0  0  0  0  0
    3.1390    4.4020   48.6420 C   0  0  0  0  0  0  0  0  0  0  0  0
    2.7350    5.3940   51.1480 C   0  0  0  0  0  0  0  0  0  0  0  0
    5.0470    9.9630   55.6030 C   0  0  0  0  0  0  0  0  0  0  0  0
    2.7320    2.9910   51.9570 C   0  0  0  0  0  0  0  0  0  0  0  0
    1.6160    6.9240   52.6970 C   0  0  0  0  0  0  0  0  0  0  0  0
    3.5750    3.6850   47.4390 C   0  0  0  0  0  0  0  0  0  0  0  0
    1.8380    7.7190   53.9550 C   0  0  0  0  0  0  0  0  0  0  0  0
    2.5280    9.0650   53.7200 C   0  0  0  0  0  0  0  0  0  0  0  0
    2.5790    5.9970   52.4020 N   0  0  0  0  0  0  0  0  0  0  0  0
    3.9300    8.9550   53.3370 N   0  0  0  0  0  0  0  0  0  0  0  0
    3.0650    3.4290   53.0040 O   0  0  0  0  0  0  0  0  0  0  0  0
    0.6520    7.0790   51.9750 O   0  0  0  0  0  0  0  0  0  0  0  0
    4.5340   11.4150   53.4850 O   0  0  0  0  0  0  0  0  0  0  0  0
    6.3200    9.7840   53.3370 O   0  0  0  0  0  0  0  0  0  0  0  0
    5.0210   10.1160   53.8130 S   0  0  0  0  0  0  0  0  0  0  0  0
  1  3  2  0
  1  4  1  0
  2  5  2  0
  2  6  1  0
  3  7  1  0
  4  8  2  0
  5 11  1  0
  6 12  2  0
  7 14  2  0
  8 14  1  0
  9 10  2  0
  9 16  1  0
 10 17  1  0
 11 18  2  0
 12 18  1  0
 13 15  1  0
 13 16  2  0
 14 19  1  0
 15 17  2  0
 15 19  1  0
 16 21  1  0
 17 24  1  0
 18 30  1  0
 19 26  2  0
 20 22  1  0
 20 24  1  0
 20 27  2  0
 22 23  1  0
 23 25  1  0
 25 30  1  0
 28 30  2  0
 29 30  2  0
M  END
>  <washed_aromatic_smiles>  (487) 
Cc1ccc(c(c1)C(=O)c2ccccc2)NC(=O)CCNS(=O)(=O)c3ccccc3

>  <name>  (487) 
neg217376

$$$$
neg228192
     RDKit          3D

 26 28  0  0  0  0  0  0  0  0999 V2000
    5.9220   12.7270   58.8780 C   0  0  0  0  0  0  0  0  0  0  0  0
    5.6390   13.3270   57.6590 C   0  0  0  0  0  0  0  0  0  0  0  0
    5.6080   11.3870   59.0710 C   0  0  0  0  0  0  0  0  0  0  0  0
    5.0490   12.5880   56.6410 C   0  0  0  0  0  0  0  0  0  0  0  0
    5.0050   10.6480   58.0690 C   0  0  0  0  0  0  0  0  0  0  0  0
    4.7230   10.5210   54.4930 C   0  0  0  0  0  0  0  0  0  0  0  0
    3.0530    9.5990   55.9690 C   0  0  0  0  0  0  0  0  0  0  0  0
    4.1900    9.7960   53.4470 C   0  0  0  0  0  0  0  0  0  0  0  0
    2.5140    8.8710   54.9130 C   0  0  0  0  0  0  0  0  0  0  0  0
    1.1150    3.1450   48.2940 C   0  0  0  0  0  0  0  0  0  0  0  0
    1.3320    4.2120   49.1550 C   0  0  0  0  0  0  0  0  0  0  0  0
    1.8520    1.6270   49.9900 C   0  0  0  0  0  0  0  0  0  0  0  0
    4.7290   11.2360   56.8360 C   0  0  0  0  0  0  0  0  0  0  0  0
    4.1590   10.4390   55.7660 C   0  0  0  0  0  0  0  0  0  0  0  0
    3.0850    8.9520   53.6380 C   0  0  0  0  0  0  0  0  0  0  0  0
    1.2890    1.8410   48.7340 C   0  0  0  0  0  0  0  0  0  0  0  0
    2.1220    2.6840   50.8640 C   0  0  0  0  0  0  0  0  0  0  0  0
    1.7210    3.9910   50.4800 C   0  0  0  0  0  0  0  0  0  0  0  0
    2.6450    8.1470   52.5070 C   0  0  0  0  0  0  0  0  0  0  0  0
    2.2540    5.8740   52.2120 C   0  0  0  0  0  0  0  0  0  0  0  0
    0.8110    0.6860   47.8720 C   0  0  0  0  0  0  0  0  0  0  0  0
    2.8020    2.2630   52.1540 C   0  0  0  0  0  0  0  0  0  0  0  0
    1.4530    5.1270   51.3350 N   0  0  0  0  0  0  0  0  0  0  0  0
    1.7290    7.1140   52.5910 N   0  0  0  0  0  0  0  0  0  0  0  0
    3.2100    8.2390   51.4380 O   0  0  0  0  0  0  0  0  0  0  0  0
    3.7690    5.4940   52.7820 S   0  0  0  0  0  0  0  0  0  0  0  0
  1  2  2  0
  1  3  1  0
  2  4  1  0
  3  5  2  0
  4 13  2  0
  5 13  1  0
  6  8  2  0
  6 14  1  0
  7  9  1  0
  7 14  2  0
  8 15  1  0
  9 15  2  0
 10 11  2  0
 10 16  1  0
 11 18  1  0
 12 16  2  0
 12 17  1  0
 13 14  1  0
 15 19  1  0
 16 21  1  0
 17 18  2  0
 17 22  1  0
 18 23  1  0
 19 24  1  0
 19 25  2  0
 20 23  1  0
 20 24  1  0
 20 26  2  0
M  END
>  <washed_aromatic_smiles>  (488) 
Cc1ccc(c(c1)C)NC(=S)NC(=O)c2ccc(cc2)c3ccccc3

>  <name>  (488) 
neg228192

$$$$
neg36011
     RDKit          3D

 29 31  0  0  0  0  0  0  0  0999 V2000
    5.6470   13.4630   57.2700 C   0  0  0  0  0  0  0  0  0  0  0  0
    5.3730   12.8450   56.0570 C   0  0  0  0  0  0  0  0  0  0  0  0
    1.5530    1.0730   50.4550 C   0  0  0  0  0  0  0  0  0  0  0  0
    1.0210    0.4660   49.3220 C   0  0  0  0  0  0  0  0  0  0  0  0
    5.3810   11.3900   58.3960 C   0  0  0  0  0  0  0  0  0  0  0  0
    5.7360   12.7260   58.4310 C   0  0  0  0  0  0  0  0  0  0  0  0
    5.0500   10.7550   57.1950 C   0  0  0  0  0  0  0  0  0  0  0  0
    5.1320   11.4680   55.9680 C   0  0  0  0  0  0  0  0  0  0  0  0
    1.7540    2.3880   50.1530 C   0  0  0  0  0  0  0  0  0  0  0  0
    0.9330    1.4270   48.3710 C   0  0  0  0  0  0  0  0  0  0  0  0
    2.2600    3.4510   50.9880 C   0  0  0  0  0  0  0  0  0  0  0  0
    2.8750    6.2230   52.5330 C   0  0  0  0  0  0  0  0  0  0  0  0
    1.9310    8.4530   53.0570 C   0  0  0  0  0  0  0  0  0  0  0  0
    3.2460    7.3110   54.6640 C   0  0  0  0  0  0  0  0  0  0  0  0
    3.0680    9.4960   52.9230 C   0  0  0  0  0  0  0  0  0  0  0  0
    4.4280    8.2480   54.4250 C   0  0  0  0  0  0  0  0  0  0  0  0
    6.2540   13.3810   59.6900 C   0  0  0  0  0  0  0  0  0  0  0  0
    4.6570    9.3080   57.3710 C   0  0  0  0  0  0  0  0  0  0  0  0
    2.1580    6.0830   51.1970 C   0  0  0  0  0  0  0  0  0  0  0  0
    2.4770    7.1510   53.4350 N   0  0  0  0  0  0  0  0  0  0  0  0
    3.9450    9.5940   54.1240 N   0  0  0  0  0  0  0  0  0  0  0  0
    2.8060    3.2250   52.0510 O   0  0  0  0  0  0  0  0  0  0  0  0
    3.8810    5.5630   52.7640 O   0  0  0  0  0  0  0  0  0  0  0  0
    4.5480   11.9460   53.4350 O   0  0  0  0  0  0  0  0  0  0  0  0
    6.3230   10.3740   53.8630 O   0  0  0  0  0  0  0  0  0  0  0  0
    1.3690    2.6060   48.8600 O   0  0  0  0  0  0  0  0  0  0  0  0
    2.0670    4.7350   50.5750 O   0  0  0  0  0  0  0  0  0  0  0  0
    5.0340   10.8600   54.2240 S   0  0  0  0  0  0  0  0  0  0  0  0
    0.3530    1.3160   46.5930 Br  0  0  0  0  0  0  0  0  0  0  0  0
  1  2  2  0
  1  6  1  0
  2  8  1  0
  3  4  1  0
  3  9  2  0
  4 10  2  0
  5  6  2  0
  5  7  1  0
  6 17  1  0
  7  8  2  0
  7 18  1  0
  8 28  1  0
  9 11  1  0
  9 26  1  0
 10 26  1  0
 10 29  1  0
 11 22  2  0
 11 27  1  0
 12 19  1  0
 12 20  1  0
 12 23  2  0
 13 15  1  0
 13 20  1  0
 14 16  1  0
 14 20  1  0
 15 21  1  0
 16 21  1  0
 19 27  1  0
 21 28  1  0
 24 28  2  0
 25 28  2  0
M  END
>  <washed_aromatic_smiles>  (489) 
Cc1ccc(c(c1)C)S(=O)(=O)N2CCN(CC2)C(=O)COC(=O)c3ccc(o3)Br

>  <name>  (489) 
neg36011

$$$$
neg78823
     RDKit          3D

 27 29  0  0  0  0  0  0  0  0999 V2000
    4.6220   10.0740   55.7990 C   0  0  0  0  0  0  0  0  0  0  0  0
    4.1420    9.7640   54.5420 C   0  0  0  0  0  0  0  0  0  0  0  0
    2.5460    9.3270   56.7620 C   0  0  0  0  0  0  0  0  0  0  0  0
    3.8380    9.8470   56.9190 C   0  0  0  0  0  0  0  0  0  0  0  0
    2.0330    9.0380   55.4920 C   0  0  0  0  0  0  0  0  0  0  0  0
    2.8580    9.2460   54.3870 C   0  0  0  0  0  0  0  0  0  0  0  0
    1.8790    2.2730   48.3900 C   0  0  0  0  0  0  0  0  0  0  0  0
    0.5160    0.4740   49.3640 C   0  0  0  0  0  0  0  0  0  0  0  0
    1.7160    3.1120   49.6010 C   0  0  0  0  0  0  0  0  0  0  0  0
    0.6370    1.1420   50.7560 C   0  0  0  0  0  0  0  0  0  0  0  0
    1.0460    6.3850   52.3810 C   0  0  0  0  0  0  0  0  0  0  0  0
    3.2830    6.4740   53.4250 C   0  0  0  0  0  0  0  0  0  0  0  0
    1.5070    5.1490   51.5940 C   0  0  0  0  0  0  0  0  0  0  0  0
    3.6720    5.2900   52.5730 C   0  0  0  0  0  0  0  0  0  0  0  0
    0.6360    1.4500   48.1770 C   0  0  0  0  0  0  0  0  0  0  0  0
    4.4410   10.1710   58.2680 C   0  0  0  0  0  0  0  0  0  0  0  0
    0.5850    8.5210   55.2910 C   0  0  0  0  0  0  0  0  0  0  0  0
    0.5950    0.7680   46.8180 C   0  0  0  0  0  0  0  0  0  0  0  0
    1.5470    2.3100   50.8300 N   0  0  0  0  0  0  0  0  0  0  0  0
    2.1340    7.1730   52.9420 N   0  0  0  0  0  0  0  0  0  0  0  0
    2.6320    4.3210   52.1800 N   0  0  0  0  0  0  0  0  0  0  0  0
    1.0670    9.4170   52.4970 O   0  0  0  0  0  0  0  0  0  0  0  0
    3.3890    9.0030   51.8800 O   0  0  0  0  0  0  0  0  0  0  0  0
    2.3730    1.8320   53.1980 O   0  0  0  0  0  0  0  0  0  0  0  0
    3.9040    2.0210   51.4390 O   0  0  0  0  0  0  0  0  0  0  0  0
    2.3130    8.7820   52.7710 S   0  0  0  0  0  0  0  0  0  0  0  0
    2.7100    2.5120   51.9870 S   0  0  0  0  0  0  0  0  0  0  0  0
  1  2  2  0
  1  4  1  0
  2  6  1  0
  3  4  2  0
  3  5  1  0
  4 16  1  0
  5  6  2  0
  5 17  1  0
  6 26  1  0
  7  9  1  0
  7 15  1  0
  8 10  1  0
  8 15  1  0
  9 19  1  0
 10 19  1  0
 11 13  1  0
 11 20  1  0
 12 14  1  0
 12 20  1  0
 13 21  1  0
 14 21  1  0
 15 18  1  0
 19 27  1  0
 20 26  1  0
 21 27  1  0
 22 26  2  0
 23 26  2  0
 24 27  2  0
 25 27  2  0
M  END
>  <washed_aromatic_smiles>  (490) 
Cc1ccc(c(c1)C)S(=O)(=O)N2CCN(CC2)S(=O)(=O)N3CCC(CC3)C

>  <name>  (490) 
neg78823

$$$$
neg139831
     RDKit          3D

 26 27  0  0  0  0  0  0  0  0999 V2000
    0.5520    0.4170   47.8460 C   0  0  0  0  0  0  0  0  0  0  0  0
    5.8670    9.6030   53.8790 C   0  0  0  0  0  0  0  0  0  0  0  0
    0.8030    1.7360   48.1800 C   0  0  0  0  0  0  0  0  0  0  0  0
    5.1800    8.4030   53.9750 C   0  0  0  0  0  0  0  0  0  0  0  0
    0.9050   -0.6060   48.7230 C   0  0  0  0  0  0  0  0  0  0  0  0
    3.8810   10.6710   53.1150 C   0  0  0  0  0  0  0  0  0  0  0  0
    1.7760    1.0080   50.2890 C   0  0  0  0  0  0  0  0  0  0  0  0
    5.2160   10.7490   53.4590 C   0  0  0  0  0  0  0  0  0  0  0  0
    1.4120    2.0080   49.4060 C   0  0  0  0  0  0  0  0  0  0  0  0
    3.8310    8.3210   53.6070 C   0  0  0  0  0  0  0  0  0  0  0  0
    1.5230   -0.3060   49.9400 C   0  0  0  0  0  0  0  0  0  0  0  0
    3.1700    9.4760   53.2060 C   0  0  0  0  0  0  0  0  0  0  0  0
    1.4610    4.4810   49.3150 C   0  0  0  0  0  0  0  0  0  0  0  0
    3.4650    5.9780   52.8710 C   0  0  0  0  0  0  0  0  0  0  0  0
    5.9330   12.0680   53.3550 C   0  0  0  0  0  0  0  0  0  0  0  0
    0.4020    6.2380   52.4380 C   0  0  0  0  0  0  0  0  0  0  0  0
    2.4520   -1.0710   52.1050 C   0  0  0  0  0  0  0  0  0  0  0  0
    1.2350    5.5900   50.3100 C   0  0  0  0  0  0  0  0  0  0  0  0
    2.5890    4.9780   52.1660 C   0  0  0  0  0  0  0  0  0  0  0  0
    1.6340    3.2760   49.9030 N   0  0  0  0  0  0  0  0  0  0  0  0
    3.0520    7.1210   53.4980 N   0  0  0  0  0  0  0  0  0  0  0  0
    1.2030    5.2460   51.7140 N   0  0  0  0  0  0  0  0  0  0  0  0
    1.4560    4.6220   48.1080 O   0  0  0  0  0  0  0  0  0  0  0  0
    4.6220    5.7100   52.8870 O   0  0  0  0  0  0  0  0  0  0  0  0
    1.9430   -1.3170   50.7660 O   0  0  0  0  0  0  0  0  0  0  0  0
    1.4850    9.3850   52.8100 Cl  0  0  0  0  0  0  0  0  0  0  0  0
  1  3  2  0
  1  5  1  0
  2  4  2  0
  2  8  1  0
  3  9  1  0
  4 10  1  0
  5 11  2  0
  6  8  2  0
  6 12  1  0
  7  9  2  0
  7 11  1  0
  8 15  1  0
  9 20  1  0
 10 12  2  0
 10 21  1  0
 11 25  1  0
 12 26  1  0
 13 18  1  0
 13 20  1  0
 13 23  2  0
 14 19  1  0
 14 21  1  0
 14 24  2  0
 16 22  1  0
 17 25  1  0
 18 22  1  0
 19 22  1  0
M  END
>  <washed_aromatic_smiles>  (491) 
Cc1ccc(c(c1)Cl)NC(=O)CN(C)CC(=O)Nc2cccc(c2)OC

>  <name>  (491) 
neg139831

$$$$
neg294295
     RDKit          3D

 28 31  0  0  0  0  0  0  0  0999 V2000
    5.7510   12.9930   57.6010 C   0  0  0  0  0  0  0  0  0  0  0  0
    5.4140   12.0980   58.6250 C   0  0  0  0  0  0  0  0  0  0  0  0
    5.5100   12.6600   56.2690 C   0  0  0  0  0  0  0  0  0  0  0  0
    4.8090   10.8790   58.3270 C   0  0  0  0  0  0  0  0  0  0  0  0
    1.0340    1.7700   48.3050 C   0  0  0  0  0  0  0  0  0  0  0  0
    1.7380    2.8440   47.7790 C   0  0  0  0  0  0  0  0  0  0  0  0
    1.4480    2.6350   50.4980 C   0  0  0  0  0  0  0  0  0  0  0  0
    4.9180   11.4310   55.9830 C   0  0  0  0  0  0  0  0  0  0  0  0
    4.5480   10.5650   56.9950 C   0  0  0  0  0  0  0  0  0  0  0  0
    0.9690    1.6160   49.6830 C   0  0  0  0  0  0  0  0  0  0  0  0
    2.3310    3.7850   48.6070 C   0  0  0  0  0  0  0  0  0  0  0  0
    1.9420    3.8260   49.9440 C   0  0  0  0  0  0  0  0  0  0  0  0
    4.5860   10.8120   54.7260 C   0  0  0  0  0  0  0  0  0  0  0  0
    3.9320    9.4060   56.3910 C   0  0  0  0  0  0  0  0  0  0  0  0
    2.1370    8.1850   53.7110 C   0  0  0  0  0  0  0  0  0  0  0  0
    2.9650    6.0900   50.6000 C   0  0  0  0  0  0  0  0  0  0  0  0
    1.0860    5.2470   51.8290 C   0  0  0  0  0  0  0  0  0  0  0  0
    3.0450    7.0860   51.7630 C   0  0  0  0  0  0  0  0  0  0  0  0
    0.7260    6.6790   52.2650 C   0  0  0  0  0  0  0  0  0  0  0  0
    0.3500    0.3760   50.2870 C   0  0  0  0  0  0  0  0  0  0  0  0
    3.4640    4.6200   48.0850 C   0  0  0  0  0  0  0  0  0  0  0  0
    3.5990    8.6050   53.9960 C   0  0  0  0  0  0  0  0  0  0  0  0
    1.9190    5.0750   50.6640 N   0  0  0  0  0  0  0  0  0  0  0  0
    3.9300    9.6080   55.0120 N   0  0  0  0  0  0  0  0  0  0  0  0
    1.9250    7.4250   52.6030 N   0  0  0  0  0  0  0  0  0  0  0  0
    4.8290   11.2140   53.5950 O   0  0  0  0  0  0  0  0  0  0  0  0
    3.5320    8.3840   56.9290 O   0  0  0  0  0  0  0  0  0  0  0  0
    1.2270    8.4540   54.4920 O   0  0  0  0  0  0  0  0  0  0  0  0
  1  2  2  0
  1  3  1  0
  2  4  1  0
  3  8  2  0
  4  9  2  0
  5  6  2  0
  5 10  1  0
  6 11  1  0
  7 10  2  0
  7 12  1  0
  8  9  1  0
  8 13  1  0
  9 14  1  0
 10 20  1  0
 11 12  2  0
 11 21  1  0
 12 23  1  0
 13 24  1  0
 13 26  2  0
 14 24  1  0
 14 27  2  0
 15 22  1  0
 15 25  1  0
 15 28  2  0
 16 18  1  0
 16 23  1  0
 17 19  1  0
 17 23  1  0
 18 25  1  0
 19 25  1  0
 22 24  1  0
M  END
>  <washed_aromatic_smiles>  (492) 
Cc1ccc(c(c1)N2CCN(CC2)C(=O)CN3C(=O)c4ccccc4C3=O)C

>  <name>  (492) 
neg294295

$$$$
neg229227
     RDKit          3D

 29 32  0  0  0  0  0  0  0  0999 V2000
    1.7230    8.6520   53.3600 C   0  0  0  0  0  0  0  0  0  0  0  0
    0.5890    0.5290   46.8390 C   0  0  0  0  0  0  0  0  0  0  0  0
    0.5470    7.9190   53.2710 C   0  0  0  0  0  0  0  0  0  0  0  0
    2.7890    8.3570   52.5250 C   0  0  0  0  0  0  0  0  0  0  0  0
    0.9360    1.7820   46.4030 C   0  0  0  0  0  0  0  0  0  0  0  0
    0.2520    0.3190   48.1670 C   0  0  0  0  0  0  0  0  0  0  0  0
    0.4610    6.8320   52.4040 C   0  0  0  0  0  0  0  0  0  0  0  0
    2.6870    7.2920   51.6430 C   0  0  0  0  0  0  0  0  0  0  0  0
    1.1500    2.8070   47.3140 C   0  0  0  0  0  0  0  0  0  0  0  0
    0.3720    1.3690   49.0640 C   0  0  0  0  0  0  0  0  0  0  0  0
    3.9880   -0.6170   55.8560 C   0  0  0  0  0  0  0  0  0  0  0  0
    3.4200   -1.0290   54.6460 C   0  0  0  0  0  0  0  0  0  0  0  0
    3.1710    1.5900   55.4490 C   0  0  0  0  0  0  0  0  0  0  0  0
    1.5640    6.4780   51.6190 C   0  0  0  0  0  0  0  0  0  0  0  0
    0.9240    2.6000   48.6580 C   0  0  0  0  0  0  0  0  0  0  0  0
    3.8350    0.7010   56.2810 C   0  0  0  0  0  0  0  0  0  0  0  0
    2.7520   -0.1720   53.8270 C   0  0  0  0  0  0  0  0  0  0  0  0
    2.8320    1.1650   54.1650 C   0  0  0  0  0  0  0  0  0  0  0  0
    1.6650    5.2350   50.8880 C   0  0  0  0  0  0  0  0  0  0  0  0
    1.3590    3.6250   49.5950 C   0  0  0  0  0  0  0  0  0  0  0  0
    3.5380    1.7710   51.9530 C   0  0  0  0  0  0  0  0  0  0  0  0
    4.4300    1.1720   57.5920 C   0  0  0  0  0  0  0  0  0  0  0  0
    2.1180   -0.7380   52.5680 C   0  0  0  0  0  0  0  0  0  0  0  0
    2.7820    1.9920   50.7040 C   0  0  0  0  0  0  0  0  0  0  0  0
    1.0080    4.8640   49.7640 N   0  0  0  0  0  0  0  0  0  0  0  0
    2.4530    4.3160   51.3510 N   0  0  0  0  0  0  0  0  0  0  0  0
    2.2410    3.3100   50.5350 N   0  0  0  0  0  0  0  0  0  0  0  0
    2.8380    2.0450   53.0980 N   0  0  0  0  0  0  0  0  0  0  0  0
    4.6070    1.2070   51.9500 O   0  0  0  0  0  0  0  0  0  0  0  0
  1  3  2  0
  1  4  1  0
  2  5  2  0
  2  6  1  0
  3  7  1  0
  4  8  2  0
  5  9  1  0
  6 10  2  0
  7 14  2  0
  8 14  1  0
  9 15  2  0
 10 15  1  0
 11 12  2  0
 11 16  1  0
 12 17  1  0
 13 16  2  0
 13 18  1  0
 14 19  1  0
 15 20  1  0
 16 22  1  0
 17 18  2  0
 17 23  1  0
 18 28  1  0
 19 25  1  0
 19 26  2  0
 20 25  2  0
 20 27  1  0
 21 24  1  0
 21 28  1  0
 21 29  2  0
 24 27  1  0
 26 27  1  0
M  END
>  <washed_aromatic_smiles>  (493) 
Cc1ccc(c(c1)NC(=O)Cn2c(nc(n2)c3ccccc3)c4ccccc4)C

>  <name>  (493) 
neg229227

$$$$
neg47374
     RDKit          3D

 27 28  0  0  0  0  0  0  0  0999 V2000
    5.3330   11.6140   57.5370 C   0  0  0  0  0  0  0  0  0  0  0  0
    1.6510    2.5490   49.6500 C   0  0  0  0  0  0  0  0  0  0  0  0
    2.7830    2.2730   51.7790 C   0  0  0  0  0  0  0  0  0  0  0  0
    5.0990   12.2360   56.3130 C   0  0  0  0  0  0  0  0  0  0  0  0
    1.6720    3.9280   49.8380 C   0  0  0  0  0  0  0  0  0  0  0  0
    2.7860    3.6390   51.9500 C   0  0  0  0  0  0  0  0  0  0  0  0
    5.0940    9.4470   56.5030 C   0  0  0  0  0  0  0  0  0  0  0  0
    5.3520   10.2200   57.6270 C   0  0  0  0  0  0  0  0  0  0  0  0
    2.1790    1.7300   50.6460 C   0  0  0  0  0  0  0  0  0  0  0  0
    4.7820   10.0640   55.2890 C   0  0  0  0  0  0  0  0  0  0  0  0
    4.8440   11.4580   55.1850 C   0  0  0  0  0  0  0  0  0  0  0  0
    2.2100    4.4740   51.0060 C   0  0  0  0  0  0  0  0  0  0  0  0
    2.9510   -0.4490   51.2180 C   0  0  0  0  0  0  0  0  0  0  0  0
    3.6490    8.1350   54.2180 C   0  0  0  0  0  0  0  0  0  0  0  0
    5.6760    9.5190   58.9230 C   0  0  0  0  0  0  0  0  0  0  0  0
    2.3990   -1.3560   52.2760 C   0  0  0  0  0  0  0  0  0  0  0  0
    5.4160   13.1230   53.4780 C   0  0  0  0  0  0  0  0  0  0  0  0
    2.0330    0.3390   50.5910 N   0  0  0  0  0  0  0  0  0  0  0  0
    4.3860    9.3110   54.1550 N   0  0  0  0  0  0  0  0  0  0  0  0
    3.2270    7.6950   53.0270 N   0  0  0  0  0  0  0  0  0  0  0  0
    2.6110    6.4250   52.8040 N   0  0  0  0  0  0  0  0  0  0  0  0
    4.1380   -0.2960   51.0060 O   0  0  0  0  0  0  0  0  0  0  0  0
    3.3820    7.5300   55.2760 O   0  0  0  0  0  0  0  0  0  0  0  0
    3.0200    6.8450   50.3960 O   0  0  0  0  0  0  0  0  0  0  0  0
    0.7110    6.5570   51.2480 O   0  0  0  0  0  0  0  0  0  0  0  0
    4.6230   12.0370   53.9510 O   0  0  0  0  0  0  0  0  0  0  0  0
    2.1080    6.2160   51.3160 S   0  0  1  0  0  0  0  0  0  0  0  0
  1  4  2  0
  1  8  1  0
  2  5  2  0
  2  9  1  0
  3  6  1  0
  3  9  2  0
  4 11  1  0
  5 12  1  0
  6 12  2  0
  7  8  2  0
  7 10  1  0
  8 15  1  0
  9 18  1  0
 10 11  2  0
 10 19  1  0
 11 26  1  0
 12 27  1  0
 13 16  1  0
 13 18  1  0
 13 22  2  0
 14 19  1  0
 14 20  1  0
 14 23  2  0
 17 26  1  0
 20 21  1  0
 21 27  2  0
 24 27  2  0
 27 25  1  1
M  CHG  1  25  -1
M  END
>  <washed_aromatic_smiles>  (494) 
Cc1ccc(c(c1)NC(=O)NNS(=O)(=O)c2ccc(cc2)NC(=O)C)OC

>  <name>  (494) 
neg47374

$$$$
neg65906
     RDKit          3D

 27 29  0  0  0  0  0  0  0  0999 V2000
    3.5770    5.8910   52.9140 C   0  0  0  0  0  0  0  0  0  0  0  0
    1.6640    6.9990   52.0260 C   0  0  0  0  0  0  0  0  0  0  0  0
    1.4960   -0.4710   50.5020 C   0  0  0  0  0  0  0  0  0  0  0  0
    2.8260   -0.2910   50.8410 C   0  0  0  0  0  0  0  0  0  0  0  0
    4.0350    7.1050   53.3740 C   0  0  0  0  0  0  0  0  0  0  0  0
    2.1440    8.2250   52.5190 C   0  0  0  0  0  0  0  0  0  0  0  0
    1.0490    1.7910   51.1390 C   0  0  0  0  0  0  0  0  0  0  0  0
    2.4320    5.8230   52.1320 C   0  0  0  0  0  0  0  0  0  0  0  0
    0.6010    0.5690   50.6900 C   0  0  0  0  0  0  0  0  0  0  0  0
    2.3900    2.0340   51.3740 C   0  0  0  0  0  0  0  0  0  0  0  0
    3.2820    0.9520   51.2750 C   0  0  0  0  0  0  0  0  0  0  0  0
    3.4030    8.2900   53.1140 C   0  0  0  0  0  0  0  0  0  0  0  0
    2.1160    4.5790   51.4060 C   0  0  0  0  0  0  0  0  0  0  0  0
    4.5590    8.8860   58.1040 C   0  0  0  0  0  0  0  0  0  0  0  0
    5.7890    9.1510   57.2650 C   0  0  0  0  0  0  0  0  0  0  0  0
    3.3650    9.6040   57.4500 C   0  0  0  0  0  0  0  0  0  0  0  0
    5.5260    8.7680   55.8140 C   0  0  0  0  0  0  0  0  0  0  0  0
    3.2310    9.3520   55.9490 C   0  0  0  0  0  0  0  0  0  0  0  0
   -0.8670    0.3940   50.4950 C   0  0  0  0  0  0  0  0  0  0  0  0
    5.5850    0.3660   50.7850 C   0  0  0  0  0  0  0  0  0  0  0  0
    4.4730    9.6040   55.2250 N   0  0  0  0  0  0  0  0  0  0  0  0
    2.7690    3.3700   51.7530 N   0  0  0  0  0  0  0  0  0  0  0  0
    1.3230    4.5700   50.4730 O   0  0  0  0  0  0  0  0  0  0  0  0
    5.7350    9.5770   53.0570 O   0  0  0  0  0  0  0  0  0  0  0  0
    3.7530   10.9000   53.1500 O   0  0  0  0  0  0  0  0  0  0  0  0
    4.6020    1.0700   51.6020 O   0  0  0  0  0  0  0  0  0  0  0  0
    4.4120    9.7240   53.5630 S   0  0  0  0  0  0  0  0  0  0  0  0
  1  5  2  0
  1  8  1  0
  2  6  1  0
  2  8  2  0
  3  4  2  0
  3  9  1  0
  4 11  1  0
  5 12  1  0
  6 12  2  0
  7  9  2  0
  7 10  1  0
  8 13  1  0
  9 19  1  0
 10 11  2  0
 10 22  1  0
 11 26  1  0
 12 27  1  0
 13 22  1  0
 13 23  2  0
 14 15  1  0
 14 16  1  0
 15 17  1  0
 16 18  1  0
 17 21  1  0
 18 21  1  0
 20 26  1  0
 21 27  1  0
 24 27  2  0
 25 27  2  0
M  END
>  <washed_aromatic_smiles>  (495) 
Cc1ccc(c(c1)NC(=O)c2ccc(cc2)S(=O)(=O)N3CCCCC3)OC

>  <name>  (495) 
neg65906

$$$$
neg269458
     RDKit          3D

 25 25  0  0  0  0  0  0  0  0999 V2000
    0.9940   -0.6250   48.3130 C   0  0  0  0  0  0  0  0  0  0  0  0
    1.1390   -0.8230   49.6790 C   0  0  0  0  0  0  0  0  0  0  0  0
    0.7980    1.7440   48.6540 C   0  0  0  0  0  0  0  0  0  0  0  0
    0.8140    0.6560   47.7910 C   0  0  0  0  0  0  0  0  0  0  0  0
    1.1200    0.2570   50.5440 C   0  0  0  0  0  0  0  0  0  0  0  0
    0.9800    1.5290   50.0130 C   0  0  0  0  0  0  0  0  0  0  0  0
    2.2640   -0.6660   52.5100 C   0  0  0  0  0  0  0  0  0  0  0  0
    2.3710    3.0040   51.0610 C   0  0  0  0  0  0  0  0  0  0  0  0
    3.2540    1.0830   55.8330 C   0  0  0  0  0  0  0  0  0  0  0  0
    2.7760    6.8490   51.4950 C   0  0  0  0  0  0  0  0  0  0  0  0
    0.6750    0.8840   46.3100 C   0  0  0  0  0  0  0  0  0  0  0  0
    5.1160    0.9650   57.4060 C   0  0  0  0  0  0  0  0  0  0  0  0
    3.6420    6.5640   49.0440 C   0  0  0  0  0  0  0  0  0  0  0  0
    3.1100   -0.0960   53.6030 C   0  0  0  0  0  0  0  0  0  0  0  0
    2.5910    4.4300   50.7290 C   0  0  0  0  0  0  0  0  0  0  0  0
    2.3690    0.3960   54.8030 C   0  0  0  0  0  0  0  0  0  0  0  0
    2.5580    5.4000   51.8990 C   0  0  0  0  0  0  0  0  0  0  0  0
    1.3450    0.1640   51.9390 N   0  0  0  0  0  0  0  0  0  0  0  0
    2.4440   -1.7860   52.1110 O   0  0  0  0  0  0  0  0  0  0  0  0
    3.2400    2.2380   51.3950 O   0  0  0  0  0  0  0  0  0  0  0  0
    3.0000    2.2260   56.1910 O   0  0  0  0  0  0  0  0  0  0  0  0
    2.5410    7.7260   52.3230 O   0  0  0  0  0  0  0  0  0  0  0  0
    1.1370    2.6060   50.8150 O   0  0  0  0  0  0  0  0  0  0  0  0
    4.2730    0.3940   56.3770 O   0  0  0  0  0  0  0  0  0  0  0  0
    3.2370    7.2180   50.2800 O   0  0  0  0  0  0  0  0  0  0  0  0
  1  2  2  0
  1  4  1  0
  2  5  1  0
  3  4  2  0
  3  6  1  0
  4 11  1  0
  5  6  2  0
  5 18  1  0
  6 23  1  0
  7 14  1  0
  7 18  1  0
  7 19  2  0
  8 15  1  0
  8 20  2  0
  8 23  1  0
  9 16  1  0
  9 21  2  0
  9 24  1  0
 10 17  1  0
 10 22  2  0
 10 25  1  0
 12 24  1  0
 13 25  1  0
 14 16  1  0
 15 17  1  0
M  END
>  <washed_aromatic_smiles>  (496) 
Cc1ccc(c(c1)OC(=O)CCC(=O)OC)NC(=O)CCC(=O)OC

>  <name>  (496) 
neg269458

$$$$
neg287561
     RDKit          3D

 25 26  0  0  0  0  0  0  0  0999 V2000
    1.2310    8.1520   54.6140 C   0  0  0  0  0  0  0  0  0  0  0  0
    1.4600    7.6930   53.3210 C   0  0  0  0  0  0  0  0  0  0  0  0
    2.8190    2.9530   52.0690 C   0  0  0  0  0  0  0  0  0  0  0  0
    2.7210    1.6090   51.7500 C   0  0  0  0  0  0  0  0  0  0  0  0
    3.3530    9.2940   54.6280 C   0  0  0  0  0  0  0  0  0  0  0  0
    1.9040    3.5750   49.9080 C   0  0  0  0  0  0  0  0  0  0  0  0
    2.2110    8.8840   55.2970 C   0  0  0  0  0  0  0  0  0  0  0  0
    2.3890    3.9280   51.1700 C   0  0  0  0  0  0  0  0  0  0  0  0
    2.6410    8.0520   52.6780 C   0  0  0  0  0  0  0  0  0  0  0  0
    2.1880    1.2430   50.5230 C   0  0  0  0  0  0  0  0  0  0  0  0
    3.5250    8.9540   53.2930 C   0  0  0  0  0  0  0  0  0  0  0  0
    1.8230    2.2210   49.5830 C   0  0  0  0  0  0  0  0  0  0  0  0
    2.9310    6.3030   50.8380 C   0  0  0  0  0  0  0  0  0  0  0  0
    2.0850    9.2710   56.7520 C   0  0  0  0  0  0  0  0  0  0  0  0
    0.9360   -0.6420   49.5390 C   0  0  0  0  0  0  0  0  0  0  0  0
    0.7370    2.5220   47.3120 C   0  0  0  0  0  0  0  0  0  0  0  0
    5.5680   10.3920   53.1090 C   0  0  0  0  0  0  0  0  0  0  0  0
    2.4360    5.2760   51.6050 N   0  0  0  0  0  0  0  0  0  0  0  0
    2.9540    7.5690   51.3860 N   0  0  0  0  0  0  0  0  0  0  0  0
    3.3940    6.1180   49.7110 O   0  0  0  0  0  0  0  0  0  0  0  0
    2.0150   -0.1070   50.3190 O   0  0  0  0  0  0  0  0  0  0  0  0
    1.4160    1.8080   48.3370 O   0  0  0  0  0  0  0  0  0  0  0  0
    4.5330    9.5570   52.5610 O   0  0  0  0  0  0  0  0  0  0  0  0
    6.4330    9.6550   53.8190 F   0  0  0  0  0  0  0  0  0  0  0  0
    6.2710   10.9850   52.1360 F   0  0  0  0  0  0  0  0  0  0  0  0
  1  2  2  0
  1  7  1  0
  2  9  1  0
  3  4  2  0
  3  8  1  0
  4 10  1  0
  5  7  2  0
  5 11  1  0
  6  8  2  0
  6 12  1  0
  7 14  1  0
  8 18  1  0
  9 11  2  0
  9 19  1  0
 10 12  2  0
 10 21  1  0
 11 23  1  0
 12 22  1  0
 13 18  1  0
 13 19  1  0
 13 20  2  0
 15 21  1  0
 16 22  1  0
 17 23  1  0
 17 24  1  0
 17 25  1  0
M  END
>  <washed_aromatic_smiles>  (497) 
Cc1ccc(c(c1)OC(F)F)NC(=O)Nc2ccc(c(c2)OC)OC

>  <name>  (497) 
neg287561

$$$$
neg106921
     RDKit          3D

 26 28  0  0  0  0  0  0  0  0999 V2000
    5.7400   13.3080   58.5750 C   0  0  0  0  0  0  0  0  0  0  0  0
    5.5520   12.1600   59.3440 C   0  0  0  0  0  0  0  0  0  0  0  0
    5.5880   13.2470   57.2020 C   0  0  0  0  0  0  0  0  0  0  0  0
    5.3150   10.9230   58.7460 C   0  0  0  0  0  0  0  0  0  0  0  0
    1.4590    4.9440   50.8680 C   0  0  0  0  0  0  0  0  0  0  0  0
    1.0500    5.6620   51.9840 C   0  0  0  0  0  0  0  0  0  0  0  0
    3.0960    6.6180   50.4080 C   0  0  0  0  0  0  0  0  0  0  0  0
    5.4150   12.0130   56.6060 C   0  0  0  0  0  0  0  0  0  0  0  0
    5.2870   10.8590   57.3570 C   0  0  0  0  0  0  0  0  0  0  0  0
    2.4970    5.4090   50.0810 C   0  0  0  0  0  0  0  0  0  0  0  0
    1.7490    6.7850   52.4070 C   0  0  0  0  0  0  0  0  0  0  0  0
    2.7240    7.3110   51.5650 C   0  0  0  0  0  0  0  0  0  0  0  0
    5.4290   11.6730   55.2170 C   0  0  0  0  0  0  0  0  0  0  0  0
    5.2210    9.7440   56.4490 C   0  0  0  0  0  0  0  0  0  0  0  0
    5.0480    9.9420   52.8830 C   0  0  0  0  0  0  0  0  0  0  0  0
    2.8990    4.6370   48.8460 C   0  0  0  0  0  0  0  0  0  0  0  0
    0.5940    8.6010   53.6700 C   0  0  0  0  0  0  0  0  0  0  0  0
    2.7640    7.3830   54.6170 C   0  0  0  0  0  0  0  0  0  0  0  0
    3.5790    9.6590   52.7430 C   0  0  0  0  0  0  0  0  0  0  0  0
    1.4670    7.3600   53.7680 C   0  0  0  0  0  0  0  0  0  0  0  0
    5.3720   10.2800   55.1750 N   0  0  0  0  0  0  0  0  0  0  0  0
    5.5770    9.4460   54.0150 N   0  0  0  0  0  0  0  0  0  0  0  0
    5.5150   12.4330   54.2580 O   0  0  0  0  0  0  0  0  0  0  0  0
    5.1110    8.5440   56.6830 O   0  0  0  0  0  0  0  0  0  0  0  0
    5.7240   10.6290   52.1310 O   0  0  0  0  0  0  0  0  0  0  0  0
    3.3220    8.5600   51.7940 O   0  0  0  0  0  0  0  0  0  0  0  0
  1  2  2  0
  1  3  1  0
  2  4  1  0
  3  8  2  0
  4  9  2  0
  5  6  2  0
  5 10  1  0
  6 11  1  0
  7 10  2  0
  7 12  1  0
  8  9  1  0
  8 13  1  0
  9 14  1  0
 10 16  1  0
 11 12  2  0
 11 20  1  0
 12 26  1  0
 13 21  1  0
 13 23  2  0
 14 21  1  0
 14 24  2  0
 15 19  1  0
 15 22  1  0
 15 25  2  0
 17 20  1  0
 18 20  1  0
 19 26  1  0
 21 22  1  0
M  END
>  <washed_aromatic_smiles>  (498) 
Cc1ccc(c(c1)OCC(=O)NN2C(=O)c3ccccc3C2=O)C(C)C

>  <name>  (498) 
neg106921

$$$$
neg259071
     RDKit          3D

 29 31  0  0  0  0  0  0  0  0999 V2000
    0.8580   -0.3470   48.8810 C   0  0  0  0  0  0  0  0  0  0  0  0
    1.4480   -0.3470   50.1430 C   0  0  0  0  0  0  0  0  0  0  0  0
    3.5550    6.7360   53.3530 C   0  0  0  0  0  0  0  0  0  0  0  0
    1.8060    8.1990   52.5570 C   0  0  0  0  0  0  0  0  0  0  0  0
    4.2450    7.8400   53.8380 C   0  0  0  0  0  0  0  0  0  0  0  0
    2.5490    9.2940   52.9650 C   0  0  0  0  0  0  0  0  0  0  0  0
    1.1380    2.0310   48.7360 C   0  0  0  0  0  0  0  0  0  0  0  0
    0.7210    0.8420   48.1700 C   0  0  0  0  0  0  0  0  0  0  0  0
    1.8870    0.8420   50.7200 C   0  0  0  0  0  0  0  0  0  0  0  0
    2.3710    6.9400   52.6630 C   0  0  0  0  0  0  0  0  0  0  0  0
    1.7070    2.0320   50.0090 C   0  0  0  0  0  0  0  0  0  0  0  0
    3.7680    9.1280   53.6240 C   0  0  0  0  0  0  0  0  0  0  0  0
    2.4430    5.6200   50.6750 C   0  0  0  0  0  0  0  0  0  0  0  0
    5.7000    9.5040   57.4560 C   0  0  0  0  0  0  0  0  0  0  0  0
    3.4470    8.6080   56.9190 C   0  0  0  0  0  0  0  0  0  0  0  0
    5.2480   10.8670   56.8870 C   0  0  0  0  0  0  0  0  0  0  0  0
    3.0910    9.9820   56.3450 C   0  0  0  0  0  0  0  0  0  0  0  0
    0.1190    0.8830   46.7950 C   0  0  0  0  0  0  0  0  0  0  0  0
    2.5350    0.8190   52.0920 C   0  0  0  0  0  0  0  0  0  0  0  0
    5.1040    7.2040   58.1830 C   0  0  0  0  0  0  0  0  0  0  0  0
    1.8840    4.4800   49.8990 C   0  0  0  0  0  0  0  0  0  0  0  0
    4.5930    8.5930   57.9020 N   0  0  0  0  0  0  0  0  0  0  0  0
    4.2730   10.6800   55.8200 N   0  0  0  0  0  0  0  0  0  0  0  0
    1.8580    5.9030   51.8860 N   0  0  0  0  0  0  0  0  0  0  0  0
    3.3930    6.2550   50.2610 O   0  0  0  0  0  0  0  0  0  0  0  0
    6.1220   10.1010   54.1690 O   0  0  0  0  0  0  0  0  0  0  0  0
    4.4290   11.6720   53.4770 O   0  0  0  0  0  0  0  0  0  0  0  0
    2.0920    3.2190   50.5780 O   0  0  0  0  0  0  0  0  0  0  0  0
    4.7570   10.4990   54.2160 S   0  0  0  0  0  0  0  0  0  0  0  0
  1  2  2  0
  1  8  1  0
  2  9  1  0
  3  5  2  0
  3 10  1  0
  4  6  1  0
  4 10  2  0
  5 12  1  0
  6 12  2  0
  7  8  2  0
  7 11  1  0
  8 18  1  0
  9 11  2  0
  9 19  1  0
 10 24  1  0
 11 28  1  0
 12 29  1  0
 13 21  1  0
 13 24  1  0
 13 25  2  0
 14 16  1  0
 14 22  1  0
 15 17  1  0
 15 22  1  0
 16 23  1  0
 17 23  1  0
 20 22  1  0
 21 28  1  0
 23 29  1  0
 26 29  2  0
 27 29  2  0
M  CHG  1  22   1
M  END
>  <washed_aromatic_smiles>  (499) 
Cc1ccc(c(c1)OCC(=O)Nc2ccc(cc2)S(=O)(=O)N3CCN(CC3)C)C

>  <name>  (499) 
neg259071

$$$$
neg31099
     RDKit          3D

 25 27  0  0  0  0  0  0  0  0999 V2000
    5.3000   11.2610   58.3430 C   0  0  0  0  0  0  0  0  0  0  0  0
    5.1400   12.3250   57.4680 C   0  0  0  0  0  0  0  0  0  0  0  0
    2.4690    4.2060   48.9650 C   0  0  0  0  0  0  0  0  0  0  0  0
    5.3890    9.7790   56.4680 C   0  0  0  0  0  0  0  0  0  0  0  0
    2.1340    3.0720   49.6390 C   0  0  0  0  0  0  0  0  0  0  0  0
    5.4360    9.9760   57.8420 C   0  0  0  0  0  0  0  0  0  0  0  0
    5.0200   12.1200   56.0940 C   0  0  0  0  0  0  0  0  0  0  0  0
    2.9060    5.2360   49.8100 C   0  0  0  0  0  0  0  0  0  0  0  0
    5.1000   10.8170   55.5720 C   0  0  0  0  0  0  0  0  0  0  0  0
    2.8270    4.9350   51.1530 C   0  0  0  0  0  0  0  0  0  0  0  0
    3.2210    5.7180   52.3340 C   0  0  0  0  0  0  0  0  0  0  0  0
    1.9500    7.8270   52.3300 C   0  0  0  0  0  0  0  0  0  0  0  0
    2.7010    7.0550   54.3480 C   0  0  0  0  0  0  0  0  0  0  0  0
    2.9190    9.0490   52.4520 C   0  0  0  0  0  0  0  0  0  0  0  0
    3.7470    8.1190   54.5300 C   0  0  0  0  0  0  0  0  0  0  0  0
    5.6800    8.7970   58.7590 C   0  0  0  0  0  0  0  0  0  0  0  0
    4.8310   13.3470   55.2300 C   0  0  0  0  0  0  0  0  0  0  0  0
    3.6130    6.4240   49.2560 C   0  0  0  0  0  0  0  0  0  0  0  0
    2.4320    6.6600   52.9800 N   0  0  0  0  0  0  0  0  0  0  0  0
    3.5900    9.3210   53.7550 N   0  0  0  0  0  0  0  0  0  0  0  0
    4.2760    5.5070   52.8940 O   0  0  0  0  0  0  0  0  0  0  0  0
    4.5540   11.5620   53.0650 O   0  0  0  0  0  0  0  0  0  0  0  0
    6.0760    9.7200   53.3910 O   0  0  0  0  0  0  0  0  0  0  0  0
    2.3790    3.2670   51.3250 S   0  0  0  0  0  0  0  0  0  0  0  0
    4.8880   10.3910   53.8030 S   0  0  0  0  0  0  0  0  0  0  0  0
  1  2  2  0
  1  6  1  0
  2  7  1  0
  3  5  2  0
  3  8  1  0
  4  6  2  0
  4  9  1  0
  5 24  1  0
  6 16  1  0
  7  9  2  0
  7 17  1  0
  8 10  2  0
  8 18  1  0
  9 25  1  0
 10 11  1  0
 10 24  1  0
 11 19  1  0
 11 21  2  0
 12 14  1  0
 12 19  1  0
 13 15  1  0
 13 19  1  0
 14 20  1  0
 15 20  1  0
 20 25  1  0
 22 25  2  0
 23 25  2  0
M  END
>  <washed_aromatic_smiles>  (500) 
Cc1ccc(c(c1)S(=O)(=O)N2CCN(CC2)C(=O)c3c(ccs3)C)C

>  <name>  (500) 
neg31099

$$$$
neg30229
     RDKit          3D

 25 27  0  0  0  0  0  0  0  0999 V2000
    5.5610    0.6530   57.9300 C   0  0  0  0  0  0  0  0  0  0  0  0
    4.6170    1.5120   57.4170 C   0  0  0  0  0  0  0  0  0  0  0  0
    0.1600    1.0080   49.0880 C   0  0  0  0  0  0  0  0  0  0  0  0
    1.1220    2.4830   47.4710 C   0  0  0  0  0  0  0  0  0  0  0  0
    4.9490   -0.9580   56.2530 C   0  0  0  0  0  0  0  0  0  0  0  0
   -0.3700    0.2720   48.0510 C   0  0  0  0  0  0  0  0  0  0  0  0
    0.5470    1.6980   46.4860 C   0  0  0  0  0  0  0  0  0  0  0  0
    0.9750    2.1000   48.7970 C   0  0  0  0  0  0  0  0  0  0  0  0
    5.7130   -0.5990   57.3680 C   0  0  0  0  0  0  0  0  0  0  0  0
    3.7920    1.1210   56.3670 C   0  0  0  0  0  0  0  0  0  0  0  0
    3.9490   -0.1150   55.7250 C   0  0  0  0  0  0  0  0  0  0  0  0
    1.7170    2.7510   49.8460 C   0  0  0  0  0  0  0  0  0  0  0  0
    2.7540    0.5250   50.5050 C   0  0  0  0  0  0  0  0  0  0  0  0
    3.0980    2.4190   51.8380 C   0  0  0  0  0  0  0  0  0  0  0  0
    2.5500   -0.3280   51.7430 C   0  0  0  0  0  0  0  0  0  0  0  0
    2.7420    1.6020   53.0410 C   0  0  0  0  0  0  0  0  0  0  0  0
    6.6990   -1.5440   58.0050 C   0  0  0  0  0  0  0  0  0  0  0  0
    2.7180    2.0880   56.0360 C   0  0  0  0  0  0  0  0  0  0  0  0
   -0.1620    0.6320   46.7930 N   0  0  0  0  0  0  0  0  0  0  0  0
    2.4120    1.9330   50.7000 N   0  0  0  0  0  0  0  0  0  0  0  0
    3.1430    0.2460   52.9530 N   0  0  0  0  0  0  0  0  0  0  0  0
    1.7490    3.9700   49.9860 O   0  0  0  0  0  0  0  0  0  0  0  0
    3.3140   -1.9480   53.8970 O   0  0  0  0  0  0  0  0  0  0  0  0
    1.5310   -0.5970   54.6160 O   0  0  0  0  0  0  0  0  0  0  0  0
    2.8980   -0.6770   54.2810 S   0  0  0  0  0  0  0  0  0  0  0  0
  1  2  2  0
  1  9  1  0
  2 10  1  0
  3  6  2  0
  3  8  1  0
  4  7  1  0
  4  8  2  0
  5  9  2  0
  5 11  1  0
  6 19  1  0
  7 19  2  0
  8 12  1  0
  9 17  1  0
 10 11  2  0
 10 18  1  0
 11 25  1  0
 12 20  1  0
 12 22  2  0
 13 15  1  0
 13 20  1  0
 14 16  1  0
 14 20  1  0
 15 21  1  0
 16 21  1  0
 21 25  1  0
 23 25  2  0
 24 25  2  0
M  END
>  <washed_aromatic_smiles>  (501) 
Cc1ccc(c(c1)S(=O)(=O)N2CCN(CC2)C(=O)c3ccncc3)C

>  <name>  (501) 
neg30229

$$$$
neg199017
     RDKit          3D

 31 33  0  0  0  0  0  0  0  0999 V2000
    0.7360    0.6340   48.4150 C   0  0  0  0  0  0  0  0  0  0  0  0
    1.1070    0.1100   49.6710 C   0  0  0  0  0  0  0  0  0  0  0  0
    0.9840    1.9510   48.1120 C   0  0  0  0  0  0  0  0  0  0  0  0
    1.7100    0.9150   50.6070 C   0  0  0  0  0  0  0  0  0  0  0  0
    1.8660    4.1690   48.7810 C   0  0  0  0  0  0  0  0  0  0  0  0
    2.3360    5.0010   49.7650 C   0  0  0  0  0  0  0  0  0  0  0  0
    5.8510   13.8410   57.7750 C   0  0  0  0  0  0  0  0  0  0  0  0
    5.3870   13.1640   56.6500 C   0  0  0  0  0  0  0  0  0  0  0  0
    2.4600    3.1670   51.3180 C   0  0  0  0  0  0  0  0  0  0  0  0
    5.6940   11.8480   59.0970 C   0  0  0  0  0  0  0  0  0  0  0  0
    1.6040    2.8030   49.0590 C   0  0  0  0  0  0  0  0  0  0  0  0
    1.9480    2.2870   50.3330 C   0  0  0  0  0  0  0  0  0  0  0  0
    2.5460    4.5260   51.0780 C   0  0  0  0  0  0  0  0  0  0  0  0
    6.0420   13.1900   58.9910 C   0  0  0  0  0  0  0  0  0  0  0  0
    5.1110   11.7960   56.7370 C   0  0  0  0  0  0  0  0  0  0  0  0
    5.2210   11.1660   57.9810 C   0  0  0  0  0  0  0  0  0  0  0  0
    2.7810    5.4780   52.1580 C   0  0  0  0  0  0  0  0  0  0  0  0
    5.1860   11.1900   54.3120 C   0  0  0  0  0  0  0  0  0  0  0  0
    3.0360    8.5090   52.9060 C   0  0  0  0  0  0  0  0  0  0  0  0
    6.6090   13.9660   60.1620 C   0  0  0  0  0  0  0  0  0  0  0  0
    4.8700   10.0420   53.3910 C   0  0  0  0  0  0  0  0  0  0  0  0
    1.9850    7.5210   53.3540 C   0  0  0  0  0  0  0  0  0  0  0  0
    4.7650   11.0240   55.6070 N   0  0  0  0  0  0  0  0  0  0  0  0
    1.8000    6.4130   52.4010 N   0  0  0  0  0  0  0  0  0  0  0  0
    4.9000    9.7690   58.1460 N   0  0  0  0  0  0  0  0  0  0  0  0
    3.8750    9.2980   57.6780 O   0  0  0  0  0  0  0  0  0  0  0  0
    3.7670    5.4620   52.8830 O   0  0  0  0  0  0  0  0  0  0  0  0
    5.8100   12.1700   53.9500 O   0  0  0  0  0  0  0  0  0  0  0  0
    3.3130    8.6480   51.7260 O   0  0  0  0  0  0  0  0  0  0  0  0
    5.6590    9.0420   58.7660 O   0  0  0  0  0  0  0  0  0  0  0  0
    3.7120    9.2300   53.8190 O   0  0  0  0  0  0  0  0  0  0  0  0
  1  2  2  0
  1  3  1  0
  2  4  1  0
  3 11  2  0
  4 12  2  0
  5  6  2  0
  5 11  1  0
  6 13  1  0
  7  8  2  0
  7 14  1  0
  8 15  1  0
  9 12  1  0
  9 13  2  0
 10 14  2  0
 10 16  1  0
 11 12  1  0
 13 17  1  0
 14 20  1  0
 15 16  2  0
 15 23  1  0
 16 25  1  0
 17 24  1  0
 17 27  2  0
 18 21  1  0
 18 23  1  0
 18 28  2  0
 19 22  1  0
 19 29  2  0
 19 31  1  0
 21 31  1  0
 22 24  1  0
 25 26  1  0
 25 30  2  0
M  CHG  2  25   1  26  -1
M  END
>  <washed_aromatic_smiles>  (502) 
Cc1ccc(c(c1)[N+](=O)[O-])NC(=O)COC(=O)CNC(=O)c2ccc3ccccc3c2

>  <name>  (502) 
neg199017

$$$$
neg207639
     RDKit          3D

 25 26  0  0  0  0  0  0  0  0999 V2000
    1.4120    3.4170   48.2340 C   0  0  0  0  0  0  0  0  0  0  0  0
    4.2660   10.7910   56.2900 C   0  0  0  0  0  0  0  0  0  0  0  0
    5.7360   12.6240   55.7890 C   0  0  0  0  0  0  0  0  0  0  0  0
    4.5270   10.9630   57.6390 C   0  0  0  0  0  0  0  0  0  0  0  0
    5.9400   12.8330   57.1360 C   0  0  0  0  0  0  0  0  0  0  0  0
    1.8990    4.2360   49.2450 C   0  0  0  0  0  0  0  0  0  0  0  0
    1.1620    2.0690   48.4670 C   0  0  0  0  0  0  0  0  0  0  0  0
    1.9160    2.3350   50.7520 C   0  0  0  0  0  0  0  0  0  0  0  0
    4.8950   11.6000   55.3220 C   0  0  0  0  0  0  0  0  0  0  0  0
    5.3830   11.9700   58.0600 C   0  0  0  0  0  0  0  0  0  0  0  0
    2.1420    3.6920   50.5130 C   0  0  0  0  0  0  0  0  0  0  0  0
    1.4170    1.5290   49.7290 C   0  0  0  0  0  0  0  0  0  0  0  0
    4.6540   11.4900   53.8820 C   0  0  0  0  0  0  0  0  0  0  0  0
    3.0100    5.7670   51.7150 C   0  0  0  0  0  0  0  0  0  0  0  0
    2.7100    8.5850   53.3620 C   0  0  0  0  0  0  0  0  0  0  0  0
    5.7760   12.0860   59.4940 C   0  0  0  0  0  0  0  0  0  0  0  0
    4.9080   12.7170   53.0420 C   0  0  0  0  0  0  0  0  0  0  0  0
    3.4860    6.1890   53.0910 C   0  0  0  0  0  0  0  0  0  0  0  0
    2.5750    7.1660   53.8470 C   0  0  0  0  0  0  0  0  0  0  0  0
    4.1480   10.5040   53.2430 N   0  0  0  0  0  0  0  0  0  0  0  0
    2.6060    4.4500   51.6270 N   0  0  0  0  0  0  0  0  0  0  0  0
    3.8360    9.2760   53.7640 N   0  0  0  0  0  0  0  0  0  0  0  0
    2.9930    6.5150   50.7650 O   0  0  0  0  0  0  0  0  0  0  0  0
    1.8540    9.1280   52.6960 O   0  0  0  0  0  0  0  0  0  0  0  0
    1.1000   -0.1480   50.0250 Cl  0  0  0  0  0  0  0  0  0  0  0  0
  1  6  2  0
  1  7  1  0
  2  4  2  0
  2  9  1  0
  3  5  1  0
  3  9  2  0
  4 10  1  0
  5 10  2  0
  6 11  1  0
  7 12  2  0
  8 11  2  0
  8 12  1  0
  9 13  1  0
 10 16  1  0
 11 21  1  0
 12 25  1  0
 13 17  1  0
 13 20  2  0
 14 18  1  0
 14 21  1  0
 14 23  2  0
 15 19  1  0
 15 22  1  0
 15 24  2  0
 18 19  1  0
 20 22  1  0
M  END
>  <washed_aromatic_smiles>  (503) 
Cc1ccc(cc1)/C(=N\NC(=O)CCC(=O)Nc2cccc(c2)Cl)/C

>  <name>  (503) 
neg207639

$$$$
neg196678
     RDKit          3D

 26 27  0  0  0  0  0  0  0  0999 V2000
    3.2700    4.9670   48.4680 C   0  0  0  0  0  0  0  0  0  0  0  0
    3.1090    3.6440   48.0800 C   0  0  0  0  0  0  0  0  0  0  0  0
    5.2520   13.1060   55.8070 C   0  0  0  0  0  0  0  0  0  0  0  0
    5.1140   10.7900   56.4400 C   0  0  0  0  0  0  0  0  0  0  0  0
    5.5100   13.4470   57.1240 C   0  0  0  0  0  0  0  0  0  0  0  0
    5.3430   11.1430   57.7640 C   0  0  0  0  0  0  0  0  0  0  0  0
    2.7360    5.4160   49.6550 C   0  0  0  0  0  0  0  0  0  0  0  0
    2.3980    2.7530   48.8830 C   0  0  0  0  0  0  0  0  0  0  0  0
    5.1130   11.7640   55.4250 C   0  0  0  0  0  0  0  0  0  0  0  0
    5.5980   12.4690   58.1010 C   0  0  0  0  0  0  0  0  0  0  0  0
    1.9770    4.5500   50.4290 C   0  0  0  0  0  0  0  0  0  0  0  0
    1.8430    3.2010   50.0770 C   0  0  0  0  0  0  0  0  0  0  0  0
    5.0640   11.4350   54.0040 C   0  0  0  0  0  0  0  0  0  0  0  0
    1.9620    5.9400   52.3900 C   0  0  0  0  0  0  0  0  0  0  0  0
    2.8990    8.7220   53.3260 C   0  0  0  0  0  0  0  0  0  0  0  0
    6.0260   12.8570   59.4910 C   0  0  0  0  0  0  0  0  0  0  0  0
    5.7960   12.3130   53.0330 C   0  0  0  0  0  0  0  0  0  0  0  0
    0.9320    0.9260   50.6670 C   0  0  0  0  0  0  0  0  0  0  0  0
    1.1070    6.9600   53.0980 C   0  0  0  0  0  0  0  0  0  0  0  0
    1.8870    7.8770   54.0450 C   0  0  0  0  0  0  0  0  0  0  0  0
    4.4390   10.4820   53.4510 N   0  0  0  0  0  0  0  0  0  0  0  0
    1.3100    5.1250   51.5150 N   0  0  0  0  0  0  0  0  0  0  0  0
    3.6350    9.5850   54.0850 N   0  0  0  0  0  0  0  0  0  0  0  0
    3.1610    5.8000   52.5770 O   0  0  0  0  0  0  0  0  0  0  0  0
    3.0710    8.6810   52.1260 O   0  0  0  0  0  0  0  0  0  0  0  0
    1.1770    2.3280   50.9230 O   0  0  0  0  0  0  0  0  0  0  0  0
  1  2  2  0
  1  7  1  0
  2  8  1  0
  3  5  2  0
  3  9  1  0
  4  6  1  0
  4  9  2  0
  5 10  1  0
  6 10  2  0
  7 11  2  0
  8 12  2  0
  9 13  1  0
 10 16  1  0
 11 12  1  0
 11 22  1  0
 12 26  1  0
 13 17  1  0
 13 21  2  0
 14 19  1  0
 14 22  1  0
 14 24  2  0
 15 20  1  0
 15 23  1  0
 15 25  2  0
 18 26  1  0
 19 20  1  0
 21 23  1  0
M  END
>  <washed_aromatic_smiles>  (504) 
Cc1ccc(cc1)/C(=N\NC(=O)CCC(=O)Nc2ccccc2OC)/C

>  <name>  (504) 
neg196678

$$$$
neg207290
     RDKit          3D

 30 32  0  0  0  0  0  0  0  0999 V2000
    3.0000   -0.5360   53.9500 C   0  0  0  0  0  0  0  0  0  0  0  0
    0.0680    0.8250   47.1270 C   0  0  0  0  0  0  0  0  0  0  0  0
    3.0870    0.8340   54.1310 C   0  0  0  0  0  0  0  0  0  0  0  0
    2.6010   -1.0410   52.7200 C   0  0  0  0  0  0  0  0  0  0  0  0
   -0.3290    0.1640   48.2810 C   0  0  0  0  0  0  0  0  0  0  0  0
    0.9570    1.8730   47.1970 C   0  0  0  0  0  0  0  0  0  0  0  0
    4.3950   10.2900   54.1900 C   0  0  0  0  0  0  0  0  0  0  0  0
    3.1670    9.8860   56.2280 C   0  0  0  0  0  0  0  0  0  0  0  0
    2.7360    1.6900   53.0960 C   0  0  0  0  0  0  0  0  0  0  0  0
    2.2310   -0.1860   51.6940 C   0  0  0  0  0  0  0  0  0  0  0  0
    0.1560    0.5880   49.5090 C   0  0  0  0  0  0  0  0  0  0  0  0
    1.4720    2.2780   48.4120 C   0  0  0  0  0  0  0  0  0  0  0  0
    5.0620   11.3440   54.7980 C   0  0  0  0  0  0  0  0  0  0  0  0
    3.8440   10.9390   56.8350 C   0  0  0  0  0  0  0  0  0  0  0  0
    3.4260    9.5560   54.8900 C   0  0  0  0  0  0  0  0  0  0  0  0
    4.7880   11.6790   56.1220 C   0  0  0  0  0  0  0  0  0  0  0  0
    2.2270    1.1950   51.8950 C   0  0  0  0  0  0  0  0  0  0  0  0
    1.0700    1.6410   49.5840 C   0  0  0  0  0  0  0  0  0  0  0  0
    2.7790    8.4460   54.2340 C   0  0  0  0  0  0  0  0  0  0  0  0
    1.8350    6.8870   51.7990 C   0  0  0  0  0  0  0  0  0  0  0  0
    1.9950    3.6030   50.9090 C   0  0  0  0  0  0  0  0  0  0  0  0
    5.4930   12.8540   56.7590 C   0  0  0  0  0  0  0  0  0  0  0  0
    3.6090    7.2060   54.3340 C   0  0  0  0  0  0  0  0  0  0  0  0
    1.1490    5.9070   50.8820 C   0  0  0  0  0  0  0  0  0  0  0  0
    1.5080    2.1510   50.9400 C   0  0  0  0  0  0  0  0  0  0  0  0
    1.6440    8.5320   53.6330 N   0  0  0  0  0  0  0  0  0  0  0  0
    1.0990    4.5290   51.2790 N   0  0  0  0  0  0  0  0  0  0  0  0
    1.1220    7.5160   52.8220 N   0  0  0  0  0  0  0  0  0  0  0  0
    2.9830    7.1900   51.5800 O   0  0  0  0  0  0  0  0  0  0  0  0
    3.0910    3.9190   50.4640 O   0  0  0  0  0  0  0  0  0  0  0  0
  1  3  2  0
  1  4  1  0
  2  5  2  0
  2  6  1  0
  3  9  1  0
  4 10  2  0
  5 11  1  0
  6 12  2  0
  7 13  2  0
  7 15  1  0
  8 14  1  0
  8 15  2  0
  9 17  2  0
 10 17  1  0
 11 18  2  0
 12 18  1  0
 13 16  1  0
 14 16  2  0
 15 19  1  0
 16 22  1  0
 17 25  1  0
 18 25  1  0
 19 23  1  0
 19 26  2  0
 20 24  1  0
 20 28  1  0
 20 29  2  0
 21 25  1  0
 21 27  1  0
 21 30  2  0
 24 27  1  0
 26 28  1  0
M  END
>  <washed_aromatic_smiles>  (505) 
Cc1ccc(cc1)/C(=N/NC(=O)CNC(=O)C(c2ccccc2)c3ccccc3)/C

>  <name>  (505) 
neg207290

$$$$
neg75683
     RDKit          3D

 26 28  0  0  0  0  0  0  0  0999 V2000
    1.3110    1.3550   50.2110 C   0  0  0  0  0  0  0  0  0  0  0  0
    2.0500    3.2630   48.9250 C   0  0  0  0  0  0  0  0  0  0  0  0
    0.7630    0.7990   49.0640 C   0  0  0  0  0  0  0  0  0  0  0  0
    1.4910    2.7120   47.7960 C   0  0  0  0  0  0  0  0  0  0  0  0
    4.1950   10.4240   57.4040 C   0  0  0  0  0  0  0  0  0  0  0  0
    5.3780   11.6260   55.6540 C   0  0  0  0  0  0  0  0  0  0  0  0
    4.6950   11.3170   58.3410 C   0  0  0  0  0  0  0  0  0  0  0  0
    5.8460   12.5320   56.5920 C   0  0  0  0  0  0  0  0  0  0  0  0
    1.9260    2.6120   50.1520 C   0  0  0  0  0  0  0  0  0  0  0  0
    0.8370    1.4890   47.8560 C   0  0  0  0  0  0  0  0  0  0  0  0
    4.5400   10.5610   56.0480 C   0  0  0  0  0  0  0  0  0  0  0  0
    5.5140   12.3550   57.9250 C   0  0  0  0  0  0  0  0  0  0  0  0
    2.3820    3.2780   51.3450 C   0  0  0  0  0  0  0  0  0  0  0  0
    2.9620    7.0270   51.9250 C   0  0  0  0  0  0  0  0  0  0  0  0
    2.9580    8.6720   55.3750 C   0  0  0  0  0  0  0  0  0  0  0  0
    4.3100    9.8660   53.6510 C   0  0  0  0  0  0  0  0  0  0  0  0
    2.8510    7.5000   54.3750 C   0  0  0  0  0  0  0  0  0  0  0  0
    3.2750    9.2660   52.7070 C   0  0  0  0  0  0  0  0  0  0  0  0
    0.2370    0.9180   46.6080 C   0  0  0  0  0  0  0  0  0  0  0  0
    2.0490    4.7510   51.5090 C   0  0  0  0  0  0  0  0  0  0  0  0
    3.1870    5.5600   52.1000 C   0  0  0  0  0  0  0  0  0  0  0  0
    4.0640    9.6210   55.0850 N   0  0  0  0  0  0  0  0  0  0  0  0
    2.9560    7.8800   52.9680 N   0  0  0  0  0  0  0  0  0  0  0  0
    2.9330    2.6630   52.2300 O   0  0  0  0  0  0  0  0  0  0  0  0
    3.0310    7.3750   50.7540 O   0  0  0  0  0  0  0  0  0  0  0  0
    6.0200   13.2040   58.8430 F   0  0  0  0  0  0  0  0  0  0  0  0
  1  3  2  0
  1  9  1  0
  2  4  1  0
  2  9  2  0
  3 10  1  0
  4 10  2  0
  5  7  2  0
  5 11  1  0
  6  8  1  0
  6 11  2  0
  7 12  1  0
  8 12  2  0
  9 13  1  0
 10 19  1  0
 11 22  1  0
 12 26  1  0
 13 20  1  0
 13 24  2  0
 14 21  1  0
 14 23  1  0
 14 25  2  0
 15 17  1  0
 15 22  1  0
 16 18  1  0
 16 22  1  0
 17 23  1  0
 18 23  1  0
 20 21  1  0
M  END
>  <washed_aromatic_smiles>  (506) 
Cc1ccc(cc1)C(=O)CCC(=O)N2CCN(CC2)c3ccc(cc3)F

>  <name>  (506) 
neg75683

$$$$
neg277805
     RDKit          3D

 25 27  0  0  0  0  0  0  0  0999 V2000
    1.1590    1.5610   48.8150 C   0  0  0  0  0  0  0  0  0  0  0  0
    1.1270    2.7670   48.1160 C   0  0  0  0  0  0  0  0  0  0  0  0
    1.6760    1.5150   50.1090 C   0  0  0  0  0  0  0  0  0  0  0  0
    1.6030    3.9330   48.7070 C   0  0  0  0  0  0  0  0  0  0  0  0
    2.1580    2.6730   50.7090 C   0  0  0  0  0  0  0  0  0  0  0  0
    2.1110    3.8770   50.0050 C   0  0  0  0  0  0  0  0  0  0  0  0
    4.1180   10.1590   55.5030 C   0  0  0  0  0  0  0  0  0  0  0  0
    4.5800   10.1450   54.2340 C   0  0  0  0  0  0  0  0  0  0  0  0
    3.0870    8.6830   54.2450 C   0  0  0  0  0  0  0  0  0  0  0  0
    4.5330   11.0730   56.5110 C   0  0  0  0  0  0  0  0  0  0  0  0
    5.4500   12.3320   54.6280 C   0  0  0  0  0  0  0  0  0  0  0  0
    1.8670    5.7870   51.5300 C   0  0  0  0  0  0  0  0  0  0  0  0
    2.1570    9.1300   56.5630 C   0  0  0  0  0  0  0  0  0  0  0  0
    6.1420   11.0980   52.5710 C   0  0  0  0  0  0  0  0  0  0  0  0
    5.5680   13.2960   56.9160 C   0  0  0  0  0  0  0  0  0  0  0  0
    2.6190    6.8970   52.2220 C   0  0  0  0  0  0  0  0  0  0  0  0
    4.0080    9.2120   53.4560 N   0  0  0  0  0  0  0  0  0  0  0  0
    3.1190    9.2420   55.4970 N   0  0  0  0  0  0  0  0  0  0  0  0
    5.4350   11.1760   53.8440 N   0  0  0  0  0  0  0  0  0  0  0  0
    5.2030   12.1970   56.0190 N   0  0  0  0  0  0  0  0  0  0  0  0
    2.5900    5.0510   50.6220 N   0  0  0  0  0  0  0  0  0  0  0  0
    4.3360   10.9510   57.7240 O   0  0  0  0  0  0  0  0  0  0  0  0
    5.6300   13.4360   54.1210 O   0  0  0  0  0  0  0  0  0  0  0  0
    0.6980    5.5280   51.7470 O   0  0  0  0  0  0  0  0  0  0  0  0
    1.9090    7.4800   53.8010 S   0  0  0  0  0  0  0  0  0  0  0  0
  1  2  2  0
  1  3  1  0
  2  4  1  0
  3  5  2  0
  4  6  2  0
  5  6  1  0
  6 21  1  0
  7  8  2  0
  7 10  1  0
  7 18  1  0
  8 17  1  0
  8 19  1  0
  9 17  2  0
  9 18  1  0
  9 25  1  0
 10 20  1  0
 10 22  2  0
 11 19  1  0
 11 20  1  0
 11 23  2  0
 12 16  1  0
 12 21  1  0
 12 24  2  0
 13 18  1  0
 14 19  1  0
 15 20  1  0
 16 25  1  0
M  END
>  <washed_aromatic_smiles>  (507) 
Cn1c2c(nc1SCC(=O)Nc3ccccc3)n(c(=O)n(c2=O)C)C

>  <name>  (507) 
neg277805

$$$$
neg226209
     RDKit          3D

 31 34  0  0  0  0  0  0  0  0999 V2000
    2.0380   -0.4700   51.1240 C   0  0  0  0  0  0  0  0  0  0  0  0
    2.7200    0.6890   51.4710 C   0  0  0  0  0  0  0  0  0  0  0  0
    1.2550   -0.4930   49.9740 C   0  0  0  0  0  0  0  0  0  0  0  0
    2.6370    1.8120   50.6600 C   0  0  0  0  0  0  0  0  0  0  0  0
    1.1600    0.6290   49.1650 C   0  0  0  0  0  0  0  0  0  0  0  0
    0.4980    6.1540   51.0370 C   0  0  0  0  0  0  0  0  0  0  0  0
    1.9090    8.7030   55.4010 C   0  0  0  0  0  0  0  0  0  0  0  0
    4.3790    9.9030   55.8730 C   0  0  0  0  0  0  0  0  0  0  0  0
    0.9220    5.2960   50.0510 C   0  0  0  0  0  0  0  0  0  0  0  0
    3.1800    5.4630   50.7790 C   0  0  0  0  0  0  0  0  0  0  0  0
    2.9010    8.6110   54.4440 C   0  0  0  0  0  0  0  0  0  0  0  0
    1.8770    1.7930   49.4780 C   0  0  0  0  0  0  0  0  0  0  0  0
    2.7660    6.2610   51.8360 C   0  0  0  0  0  0  0  0  0  0  0  0
    1.4620    6.6870   51.8680 C   0  0  0  0  0  0  0  0  0  0  0  0
    2.1700    9.2480   56.6290 C   0  0  0  0  0  0  0  0  0  0  0  0
    4.1200    9.2580   54.6670 C   0  0  0  0  0  0  0  0  0  0  0  0
    3.4120    9.8650   56.8780 C   0  0  0  0  0  0  0  0  0  0  0  0
    2.6500    7.7300   53.3430 C   0  0  0  0  0  0  0  0  0  0  0  0
    1.8330    2.9320   48.5670 C   0  0  0  0  0  0  0  0  0  0  0  0
    0.3430    8.6720   52.8250 C   0  0  0  0  0  0  0  0  0  0  0  0
   -0.2700    8.7620   57.4640 C   0  0  0  0  0  0  0  0  0  0  0  0
    6.4310    8.9900   53.9990 C   0  0  0  0  0  0  0  0  0  0  0  0
    4.9140   11.1000   58.4550 C   0  0  0  0  0  0  0  0  0  0  0  0
    2.6710    4.1740   48.7910 C   0  0  0  0  0  0  0  0  0  0  0  0
    3.4550    6.8370   52.8580 N   0  0  0  0  0  0  0  0  0  0  0  0
    1.4210    7.6920   52.7280 N   0  0  0  0  0  0  0  0  0  0  0  0
    2.2570    4.9880   49.9250 N   0  0  0  0  0  0  0  0  0  0  0  0
    1.0820    2.9380   47.6190 O   0  0  0  0  0  0  0  0  0  0  0  0
    1.1690    9.0690   57.5540 O   0  0  0  0  0  0  0  0  0  0  0  0
    5.0600    9.2300   53.6790 O   0  0  0  0  0  0  0  0  0  0  0  0
    3.6880   10.4280   58.1000 O   0  0  0  0  0  0  0  0  0  0  0  0
  1  2  2  0
  1  3  1  0
  2  4  1  0
  3  5  2  0
  4 12  2  0
  5 12  1  0
  6  9  2  0
  6 14  1  0
  7 11  2  0
  7 15  1  0
  8 16  2  0
  8 17  1  0
  9 27  1  0
 10 13  1  0
 10 27  2  0
 11 16  1  0
 11 18  1  0
 12 19  1  0
 13 14  2  0
 13 25  1  0
 14 26  1  0
 15 17  2  0
 15 29  1  0
 16 30  1  0
 17 31  1  0
 18 25  2  0
 18 26  1  0
 19 24  1  0
 19 28  2  0
 20 26  1  0
 21 29  1  0
 22 30  1  0
 23 31  1  0
 24 27  1  0
M  CHG  1  27   1
M  END
>  <washed_aromatic_smiles>  (508) 
Cn1c2cc[n+](cc2nc1c3cc(c(cc3OC)OC)OC)CC(=O)c4ccccc4

>  <name>  (508) 
neg226209

$$$$
neg105750
     RDKit          3D

 25 28  0  0  0  0  0  0  0  0999 V2000
    0.1600   -0.4610   48.6060 C   0  0  0  0  0  0  0  0  0  0  0  0
    1.0140   -0.3990   49.6990 C   0  0  0  0  0  0  0  0  0  0  0  0
    0.0450    0.6220   47.7400 C   0  0  0  0  0  0  0  0  0  0  0  0
    4.1070    7.6240   55.6880 C   0  0  0  0  0  0  0  0  0  0  0  0
    1.7070    0.7650   49.9710 C   0  0  0  0  0  0  0  0  0  0  0  0
    0.7490    1.7870   47.9850 C   0  0  0  0  0  0  0  0  0  0  0  0
    4.5420    8.7300   56.3920 C   0  0  0  0  0  0  0  0  0  0  0  0
    4.0730   10.1520   54.4870 C   0  0  0  0  0  0  0  0  0  0  0  0
    2.8640    8.9020   52.5910 C   0  0  0  0  0  0  0  0  0  0  0  0
    3.4880    9.0520   53.8340 C   0  0  0  0  0  0  0  0  0  0  0  0
    3.6250    7.7890   54.3720 C   0  0  0  0  0  0  0  0  0  0  0  0
    1.5550    1.8690   49.1270 C   0  0  0  0  0  0  0  0  0  0  0  0
    4.5430   10.0030   55.7800 C   0  0  0  0  0  0  0  0  0  0  0  0
    2.8860    7.5870   52.2240 C   0  0  0  0  0  0  0  0  0  0  0  0
    2.9350    7.0410   50.8560 C   0  0  0  0  0  0  0  0  0  0  0  0
    1.7860    3.5090   50.8400 C   0  0  0  0  0  0  0  0  0  0  0  0
    2.3520    4.1210   48.5150 C   0  0  0  0  0  0  0  0  0  0  0  0
    1.4750    5.0140   50.9500 C   0  0  0  0  0  0  0  0  0  0  0  0
    3.1250    5.2970   49.1050 C   0  0  0  0  0  0  0  0  0  0  0  0
    3.8380    5.5870   53.1910 C   0  0  0  0  0  0  0  0  0  0  0  0
    3.2840    6.8870   53.3410 N   0  0  0  0  0  0  0  0  0  0  0  0
    2.1930    3.0530   49.4980 N   0  0  0  0  0  0  0  0  0  0  0  0
    2.5740    5.7870   50.4090 N   0  0  0  0  0  0  0  0  0  0  0  0
    3.4580    7.7110   49.9890 O   0  0  0  0  0  0  0  0  0  0  0  0
    5.1330   11.3760   56.6540 Cl  0  0  0  0  0  0  0  0  0  0  0  0
  1  2  2  0
  1  3  1  0
  2  5  1  0
  3  6  2  0
  4  7  2  0
  4 11  1  0
  5 12  2  0
  6 12  1  0
  7 13  1  0
  8 10  1  0
  8 13  2  0
  9 10  1  0
  9 14  2  0
 10 11  2  0
 11 21  1  0
 12 22  1  0
 13 25  1  0
 14 15  1  0
 14 21  1  0
 15 23  1  0
 15 24  2  0
 16 18  1  0
 16 22  1  0
 17 19  1  0
 17 22  1  0
 18 23  1  0
 19 23  1  0
 20 21  1  0
M  END
>  <washed_aromatic_smiles>  (509) 
Cn1c2ccc(cc2cc1C(=O)N3CCN(CC3)c4ccccc4)Cl

>  <name>  (509) 
neg105750

$$$$
neg61289
     RDKit          3D

 29 31  0  0  0  0  0  0  0  0999 V2000
    4.9870   11.4900   54.9130 C   0  0  0  0  0  0  0  0  0  0  0  0
    2.9130    5.8180   50.0260 C   0  0  0  0  0  0  0  0  0  0  0  0
    2.0810    3.5830   50.5330 C   0  0  0  0  0  0  0  0  0  0  0  0
    3.3730    5.3760   48.8040 C   0  0  0  0  0  0  0  0  0  0  0  0
    2.5700    3.1310   49.3130 C   0  0  0  0  0  0  0  0  0  0  0  0
    4.4780   10.6830   53.8980 C   0  0  0  0  0  0  0  0  0  0  0  0
    4.1540    8.8820   55.4670 C   0  0  0  0  0  0  0  0  0  0  0  0
    5.0560   10.9850   56.2190 C   0  0  0  0  0  0  0  0  0  0  0  0
    4.7570    9.6370   56.4510 C   0  0  0  0  0  0  0  0  0  0  0  0
    2.2600    4.9280   50.8740 C   0  0  0  0  0  0  0  0  0  0  0  0
    3.2220    4.0360   48.4810 C   0  0  0  0  0  0  0  0  0  0  0  0
    4.0020    9.4040   54.1980 C   0  0  0  0  0  0  0  0  0  0  0  0
    5.4570   11.2510   58.6090 C   0  0  0  0  0  0  0  0  0  0  0  0
    5.3790    9.7880   58.7520 C   0  0  0  0  0  0  0  0  0  0  0  0
    0.7760    6.3990   52.0830 C   0  0  0  0  0  0  0  0  0  0  0  0
    5.6390   13.2410   57.1230 C   0  0  0  0  0  0  0  0  0  0  0  0
    5.2790    7.5430   57.7480 C   0  0  0  0  0  0  0  0  0  0  0  0
    0.6020    7.3190   53.2690 C   0  0  0  0  0  0  0  0  0  0  0  0
    1.4880    8.5520   53.3730 C   0  0  0  0  0  0  0  0  0  0  0  0
    5.3770   11.8090   57.3320 N   0  0  0  0  0  0  0  0  0  0  0  0
    5.0920    9.0130   57.6620 N   0  0  0  0  0  0  0  0  0  0  0  0
    1.7670    5.4570   52.0730 N   0  0  0  0  0  0  0  0  0  0  0  0
    5.6770   11.9980   59.5610 O   0  0  0  0  0  0  0  0  0  0  0  0
    5.6060    9.1870   59.7890 O   0  0  0  0  0  0  0  0  0  0  0  0
    0.0490    6.4690   51.1300 O   0  0  0  0  0  0  0  0  0  0  0  0
    3.4620    8.7750   51.7350 O   0  0  0  0  0  0  0  0  0  0  0  0
    3.5910    6.9990   53.3820 O   0  0  0  0  0  0  0  0  0  0  0  0
    3.7570    3.6100   47.3430 F   0  0  0  0  0  0  0  0  0  0  0  0
    3.2130    8.3300   53.0470 S   0  0  0  0  0  0  0  0  0  0  0  0
  1  6  2  0
  1  8  1  0
  2  4  2  0
  2 10  1  0
  3  5  1  0
  3 10  2  0
  4 11  1  0
  5 11  2  0
  6 12  1  0
  7  9  1  0
  7 12  2  0
  8  9  2  0
  8 20  1  0
  9 21  1  0
 10 22  1  0
 11 28  1  0
 12 29  1  0
 13 14  1  0
 13 20  1  0
 13 23  2  0
 14 21  1  0
 14 24  2  0
 15 18  1  0
 15 22  1  0
 15 25  2  0
 16 20  1  0
 17 21  1  0
 18 19  1  0
 19 29  1  0
 26 29  2  0
 27 29  2  0
M  END
>  <washed_aromatic_smiles>  (510) 
Cn1c2ccc(cc2n(c(=O)c1=O)C)S(=O)(=O)CCC(=O)Nc3ccc(cc3)F

>  <name>  (510) 
neg61289

$$$$
neg61802
     RDKit          3D

 25 27  0  0  0  0  0  0  0  0999 V2000
    5.8450    0.2180   59.0490 C   0  0  0  0  0  0  0  0  0  0  0  0
    5.6120   -0.8230   58.1540 C   0  0  0  0  0  0  0  0  0  0  0  0
    5.4110    1.5060   58.7460 C   0  0  0  0  0  0  0  0  0  0  0  0
    1.7610    4.8720   50.4510 C   0  0  0  0  0  0  0  0  0  0  0  0
    4.9190   -0.5900   56.9720 C   0  0  0  0  0  0  0  0  0  0  0  0
    4.7190    1.7480   57.5660 C   0  0  0  0  0  0  0  0  0  0  0  0
    1.0620    3.9030   51.1190 C   0  0  0  0  0  0  0  0  0  0  0  0
    2.2200    2.0730   50.0490 C   0  0  0  0  0  0  0  0  0  0  0  0
    2.6050    4.3910   49.4970 C   0  0  0  0  0  0  0  0  0  0  0  0
    4.4330    0.6950   56.6960 C   0  0  0  0  0  0  0  0  0  0  0  0
    2.7590    3.0570   49.3050 C   0  0  0  0  0  0  0  0  0  0  0  0
    1.2890    2.4800   50.9540 C   0  0  0  0  0  0  0  0  0  0  0  0
    3.7820    3.9440   47.7570 C   0  0  0  0  0  0  0  0  0  0  0  0
    3.1770    0.2230   54.5390 C   0  0  0  0  0  0  0  0  0  0  0  0
    3.6590    6.3650   48.6680 C   0  0  0  0  0  0  0  0  0  0  0  0
    2.6500    0.8920   53.2900 C   0  0  0  0  0  0  0  0  0  0  0  0
    1.1790    0.5340   53.0670 C   0  0  0  0  0  0  0  0  0  0  0  0
    3.3300    4.9810   48.5420 N   0  0  0  0  0  0  0  0  0  0  0  0
    3.6470    1.0330   55.5500 N   0  0  0  0  0  0  0  0  0  0  0  0
    4.4010    3.8760   46.7470 O   0  0  0  0  0  0  0  0  0  0  0  0
    3.1870   -0.9820   54.6300 O   0  0  0  0  0  0  0  0  0  0  0  0
   -0.9060    1.5460   51.8790 O   0  0  0  0  0  0  0  0  0  0  0  0
    0.4490    0.0220   50.6090 O   0  0  0  0  0  0  0  0  0  0  0  0
    3.4200    2.8170   48.2550 O   0  0  0  0  0  0  0  0  0  0  0  0
    0.3710    1.0750   51.5650 S   0  0  0  0  0  0  0  0  0  0  0  0
  1  2  2  0
  1  3  1  0
  2  5  1  0
  3  6  2  0
  4  7  2  0
  4  9  1  0
  5 10  2  0
  6 10  1  0
  7 12  1  0
  8 11  1  0
  8 12  2  0
  9 11  2  0
  9 18  1  0
 10 19  1  0
 11 24  1  0
 12 25  1  0
 13 18  1  0
 13 20  2  0
 13 24  1  0
 14 16  1  0
 14 19  1  0
 14 21  2  0
 15 18  1  0
 16 17  1  0
 17 25  1  0
 22 25  2  0
 23 25  2  0
M  END
>  <washed_aromatic_smiles>  (511) 
Cn1c2ccc(cc2oc1=O)S(=O)(=O)CCC(=O)Nc3ccccc3

>  <name>  (511) 
neg61802

$$$$
neg183045
     RDKit          3D

 26 29  0  0  0  0  0  0  0  0999 V2000
    0.1690    0.4850   48.0640 C   0  0  0  0  0  0  0  0  0  0  0  0
    5.8960    8.8950   54.5220 C   0  0  0  0  0  0  0  0  0  0  0  0
    5.7540    8.7420   55.9180 C   0  0  0  0  0  0  0  0  0  0  0  0
    0.3230    1.6490   47.3150 C   0  0  0  0  0  0  0  0  0  0  0  0
    0.8850    0.3060   49.2420 C   0  0  0  0  0  0  0  0  0  0  0  0
    4.7830    8.9190   53.6990 C   0  0  0  0  0  0  0  0  0  0  0  0
    4.5020    8.7320   56.4800 C   0  0  0  0  0  0  0  0  0  0  0  0
    1.1420    2.6700   47.7760 C   0  0  0  0  0  0  0  0  0  0  0  0
    1.7180    1.3130   49.7020 C   0  0  0  0  0  0  0  0  0  0  0  0
    1.3490    8.5540   54.8010 C   0  0  0  0  0  0  0  0  0  0  0  0
    3.5140    8.6520   54.2340 C   0  0  0  0  0  0  0  0  0  0  0  0
    2.1980    8.3440   53.7580 C   0  0  0  0  0  0  0  0  0  0  0  0
    3.4140    8.7510   55.6050 C   0  0  0  0  0  0  0  0  0  0  0  0
    1.8090    2.5190   48.9950 C   0  0  0  0  0  0  0  0  0  0  0  0
    1.7570    7.7210   52.5370 C   0  0  0  0  0  0  0  0  0  0  0  0
    2.7230    7.4030   51.5050 C   0  0  0  0  0  0  0  0  0  0  0  0
    1.6190    4.0670   50.6970 C   0  0  0  0  0  0  0  0  0  0  0  0
    2.9050    4.7700   48.8380 C   0  0  0  0  0  0  0  0  0  0  0  0
    2.3480    4.9690   51.6730 C   0  0  0  0  0  0  0  0  0  0  0  0
    3.5770    5.8580   49.7090 C   0  0  0  0  0  0  0  0  0  0  0  0
    1.6130    9.2860   57.1270 C   0  0  0  0  0  0  0  0  0  0  0  0
    2.0900    8.8330   55.8890 N   0  0  0  0  0  0  0  0  0  0  0  0
    2.4720    3.5900   49.6160 N   0  0  0  0  0  0  0  0  0  0  0  0
    2.8650    6.1320   50.9830 N   0  0  0  0  0  0  0  0  0  0  0  0
    0.5760    7.4140   52.3720 O   0  0  0  0  0  0  0  0  0  0  0  0
    3.4120    8.2990   51.0650 O   0  0  0  0  0  0  0  0  0  0  0  0
  1  4  2  0
  1  5  1  0
  2  3  2  0
  2  6  1  0
  3  7  1  0
  4  8  1  0
  5  9  2  0
  6 11  2  0
  7 13  2  0
  8 14  2  0
  9 14  1  0
 10 12  2  0
 10 22  1  0
 11 12  1  0
 11 13  1  0
 12 15  1  0
 13 22  1  0
 14 23  1  0
 15 16  1  0
 15 25  2  0
 16 24  1  0
 16 26  2  0
 17 19  1  0
 17 23  1  0
 18 20  1  0
 18 23  1  0
 19 24  1  0
 20 24  1  0
 21 22  1  0
M  END
>  <washed_aromatic_smiles>  (512) 
Cn1cc(c2c1cccc2)C(=O)C(=O)N3CCN(CC3)c4ccccc4

>  <name>  (512) 
neg183045

$$$$
neg290659
     RDKit          3D

 29 31  0  0  0  0  0  0  0  0999 V2000
    3.0650    9.6790   56.5530 C   0  0  0  0  0  0  0  0  0  0  0  0
    4.1270    9.6120   55.6690 C   0  0  0  0  0  0  0  0  0  0  0  0
    1.0580    3.6670   51.1330 C   0  0  0  0  0  0  0  0  0  0  0  0
    2.7080    2.4780   49.3510 C   0  0  0  0  0  0  0  0  0  0  0  0
    1.6850    8.3930   54.9980 C   0  0  0  0  0  0  0  0  0  0  0  0
    2.1170    4.4060   50.7370 C   0  0  0  0  0  0  0  0  0  0  0  0
    2.8310    3.8300   49.6900 C   0  0  0  0  0  0  0  0  0  0  0  0
    2.7920    8.2150   54.1700 C   0  0  0  0  0  0  0  0  0  0  0  0
    1.8690    9.0500   56.2270 C   0  0  0  0  0  0  0  0  0  0  0  0
    3.9960    8.8650   54.4990 C   0  0  0  0  0  0  0  0  0  0  0  0
    0.9770    2.2830   50.9260 C   0  0  0  0  0  0  0  0  0  0  0  0
    1.7860    1.6860   49.9780 C   0  0  0  0  0  0  0  0  0  0  0  0
    3.1280    6.5080   50.4270 C   0  0  0  0  0  0  0  0  0  0  0  0
    2.3840    5.7480   51.2450 C   0  0  0  0  0  0  0  0  0  0  0  0
    3.5300    4.7020   48.8370 C   0  0  0  0  0  0  0  0  0  0  0  0
    1.9040    6.4400   52.4460 C   0  0  0  0  0  0  0  0  0  0  0  0
    3.6190    7.0160   48.2960 C   0  0  0  0  0  0  0  0  0  0  0  0
   -0.4780    8.6670   57.1850 C   0  0  0  0  0  0  0  0  0  0  0  0
    6.4250    8.8820   54.0670 C   0  0  0  0  0  0  0  0  0  0  0  0
    0.6210    0.4610   52.4470 C   0  0  0  0  0  0  0  0  0  0  0  0
    0.4310    0.0010   48.8690 C   0  0  0  0  0  0  0  0  0  0  0  0
    3.5120    6.0220   49.2300 N   0  0  0  0  0  0  0  0  0  0  0  0
    2.8170    7.3440   53.0230 N   0  0  0  0  0  0  0  0  0  0  0  0
    4.0090    4.3370   47.7680 O   0  0  0  0  0  0  0  0  0  0  0  0
    0.7700    6.3490   52.9030 O   0  0  0  0  0  0  0  0  0  0  0  0
    0.9040    9.0670   57.2190 O   0  0  0  0  0  0  0  0  0  0  0  0
    5.0640    8.7410   53.6560 O   0  0  0  0  0  0  0  0  0  0  0  0
    0.0760    1.5150   51.6160 O   0  0  0  0  0  0  0  0  0  0  0  0
    1.6140    0.3750   49.6100 O   0  0  0  0  0  0  0  0  0  0  0  0
  1  2  2  0
  1  9  1  0
  2 10  1  0
  3  6  2  0
  3 11  1  0
  4  7  2  0
  4 12  1  0
  5  8  1  0
  5  9  2  0
  6  7  1  0
  6 14  1  0
  7 15  1  0
  8 10  2  0
  8 23  1  0
  9 26  1  0
 10 27  1  0
 11 12  2  0
 11 28  1  0
 12 29  1  0
 13 14  2  0
 13 22  1  0
 14 16  1  0
 15 22  1  0
 15 24  2  0
 16 23  1  0
 16 25  2  0
 17 22  1  0
 18 26  1  0
 19 27  1  0
 20 28  1  0
 21 29  1  0
M  END
>  <washed_aromatic_smiles>  (513) 
Cn1cc(c2cc(c(cc2c1=O)OC)OC)C(=O)Nc3cc(ccc3OC)OC

>  <name>  (513) 
neg290659

$$$$
neg237918
     RDKit          3D

 31 33  0  0  0  0  0  0  0  0999 V2000
    5.3160   11.7360   55.9990 C   0  0  0  0  0  0  0  0  0  0  0  0
    0.6180    1.8440   51.2830 C   0  0  0  0  0  0  0  0  0  0  0  0
    5.5260   12.7660   56.9080 C   0  0  0  0  0  0  0  0  0  0  0  0
    1.0720    0.6310   51.7420 C   0  0  0  0  0  0  0  0  0  0  0  0
    5.5030   11.1690   58.7250 C   0  0  0  0  0  0  0  0  0  0  0  0
    3.1070    0.9330   50.4540 C   0  0  0  0  0  0  0  0  0  0  0  0
    5.2720   10.4130   56.4500 C   0  0  0  0  0  0  0  0  0  0  0  0
    1.4250    2.6180   50.4460 C   0  0  0  0  0  0  0  0  0  0  0  0
    5.7080   12.4680   58.2590 C   0  0  0  0  0  0  0  0  0  0  0  0
    2.3400    0.2110   51.3820 C   0  0  0  0  0  0  0  0  0  0  0  0
    5.2860   10.1330   57.8210 C   0  0  0  0  0  0  0  0  0  0  0  0
    2.5720    2.1000   49.8890 C   0  0  0  0  0  0  0  0  0  0  0  0
    4.5430    9.7140   53.3110 C   0  0  0  0  0  0  0  0  0  0  0  0
    1.2810    5.9570   51.3780 C   0  0  0  0  0  0  0  0  0  0  0  0
    0.9160    8.5350   53.1090 C   0  0  0  0  0  0  0  0  0  0  0  0
    2.2030    9.3200   53.3570 C   0  0  0  0  0  0  0  0  0  0  0  0
    1.0030    7.0720   53.4630 C   0  0  0  0  0  0  0  0  0  0  0  0
    3.7910    7.4030   53.6850 C   0  0  0  0  0  0  0  0  0  0  0  0
    3.2490    6.2880   52.7830 C   0  0  0  0  0  0  0  0  0  0  0  0
    5.7440    9.4420   54.1830 C   0  0  0  0  0  0  0  0  0  0  0  0
    2.0220    5.0220   50.4710 C   0  0  0  0  0  0  0  0  0  0  0  0
    3.5580    8.7810   53.2240 N   0  0  0  0  0  0  0  0  0  0  0  0
    1.8280    6.3430   52.5380 N   0  0  0  0  0  0  0  0  0  0  0  0
    4.4000   10.8690   52.9140 O   0  0  0  0  0  0  0  0  0  0  0  0
    0.1500    6.3100   51.0700 O   0  0  0  0  0  0  0  0  0  0  0  0
    5.3330    9.3340   55.5750 O   0  0  0  0  0  0  0  0  0  0  0  0
    1.1680    3.9310   50.1240 O   0  0  0  0  0  0  0  0  0  0  0  0
    6.3290   13.6760   59.3350 Cl  0  0  0  0  0  0  0  0  0  0  0  0
    2.8780   -1.2080   52.1590 Cl  0  0  0  0  0  0  0  0  0  0  0  0
    5.1400    8.5050   58.3980 Cl  0  0  0  0  0  0  0  0  0  0  0  0
    3.1290    2.9990   48.4870 Cl  0  0  0  0  0  0  0  0  0  0  0  0
  1  3  2  0
  1  7  1  0
  2  4  2  0
  2  8  1  0
  3  9  1  0
  4 10  1  0
  5  9  2  0
  5 11  1  0
  6 10  2  0
  6 12  1  0
  7 11  2  0
  7 26  1  0
  8 12  2  0
  8 27  1  0
  9 28  1  0
 10 29  1  0
 11 30  1  0
 12 31  1  0
 13 20  1  0
 13 22  1  0
 13 24  2  0
 14 21  1  0
 14 23  1  0
 14 25  2  0
 15 16  1  0
 15 17  1  0
 16 22  1  0
 17 23  1  0
 18 19  1  0
 18 22  1  0
 19 23  1  0
 20 26  1  0
 21 27  1  0
M  END
>  <washed_aromatic_smiles>  (514) 
c1cc(c(cc1Cl)Cl)OCC(=O)N2CCCN(CC2)C(=O)COc3ccc(cc3Cl)Cl

>  <name>  (514) 
neg237918

$$$$
neg37138
     RDKit          3D

 26 28  0  0  0  0  0  0  0  0999 V2000
    1.6440    4.1500   50.7300 C   0  0  0  0  0  0  0  0  0  0  0  0
    3.0680    5.0420   48.9770 C   0  0  0  0  0  0  0  0  0  0  0  0
    1.8670    5.2790   51.5030 C   0  0  0  0  0  0  0  0  0  0  0  0
    3.2950    6.1640   49.7580 C   0  0  0  0  0  0  0  0  0  0  0  0
    2.2090    4.0620   49.4600 C   0  0  0  0  0  0  0  0  0  0  0  0
    2.6810    6.2930   51.0050 C   0  0  0  0  0  0  0  0  0  0  0  0
    0.4840    2.1960   46.8190 C   0  0  0  0  0  0  0  0  0  0  0  0
    1.0690    3.2260   47.4950 C   0  0  0  0  0  0  0  0  0  0  0  0
    1.2260    0.6790   48.3170 C   0  0  0  0  0  0  0  0  0  0  0  0
    2.0420    1.6780   48.9970 C   0  0  0  0  0  0  0  0  0  0  0  0
    0.0330    0.7580   51.4250 C   0  0  0  0  0  0  0  0  0  0  0  0
    2.9700   -0.5720   54.8190 C   0  0  0  0  0  0  0  0  0  0  0  0
    3.1820    0.9280   54.9060 C   0  0  0  0  0  0  0  0  0  0  0  0
    1.8270   -0.7600   53.8480 C   0  0  0  0  0  0  0  0  0  0  0  0
    2.9280    1.3340   53.4480 C   0  0  0  0  0  0  0  0  0  0  0  0
    1.6160    0.5910   53.2470 C   0  0  0  0  0  0  0  0  0  0  0  0
    3.0160    7.7550   54.1440 C   0  0  0  0  0  0  0  0  0  0  0  0
   -0.3960    0.2930   50.0850 C   0  0  0  0  0  0  0  0  0  0  0  0
    2.1890    7.9530   52.8760 C   0  0  0  0  0  0  0  0  0  0  0  0
    0.5710    0.8940   47.2280 N   0  0  0  0  0  0  0  0  0  0  0  0
    1.8290    2.9830   48.6280 N   0  0  0  0  0  0  0  0  0  0  0  0
    1.2230    0.3960   51.8840 N   0  0  0  0  0  0  0  0  0  0  0  0
    2.8680    1.4450   49.8880 O   0  0  0  0  0  0  0  0  0  0  0  0
   -0.6720    1.5480   52.0070 O   0  0  0  0  0  0  0  0  0  0  0  0
    2.8790    7.4660   51.7040 O   0  0  0  0  0  0  0  0  0  0  0  0
    0.8090   -0.7380   49.1850 S   0  0  0  0  0  0  0  0  0  0  0  0
  1  3  2  0
  1  5  1  0
  2  4  1  0
  2  5  2  0
  3  6  1  0
  4  6  2  0
  5 21  1  0
  6 25  1  0
  7  8  2  0
  7 20  1  0
  8 21  1  0
  9 10  1  0
  9 20  2  0
  9 26  1  0
 10 21  1  0
 10 23  2  0
 11 18  1  0
 11 22  1  0
 11 24  2  0
 12 13  1  0
 12 14  1  0
 13 15  1  0
 14 16  1  0
 15 16  1  0
 16 22  1  0
 17 19  1  0
 18 26  1  0
 19 25  1  0
M  END
>  <washed_aromatic_smiles>  (515) 
CCOc1ccc(cc1)n2ccnc(c2=O)SCC(=O)NC3CCCC3

>  <name>  (515) 
neg37138

$$$$
neg110919
     RDKit          3D

 26 28  0  0  0  0  0  0  0  0999 V2000
    2.8350    9.8000   56.4920 C   0  0  0  0  0  0  0  0  0  0  0  0
    4.1850    9.8090   56.8110 C   0  0  0  0  0  0  0  0  0  0  0  0
    3.0410    2.5660   51.3810 C   0  0  0  0  0  0  0  0  0  0  0  0
    2.9110    1.2160   51.3900 C   0  0  0  0  0  0  0  0  0  0  0  0
    2.4200    9.0930   55.3810 C   0  0  0  0  0  0  0  0  0  0  0  0
    1.5400    2.7670   49.5400 C   0  0  0  0  0  0  0  0  0  0  0  0
    5.0760    9.1200   55.9960 C   0  0  0  0  0  0  0  0  0  0  0  0
    2.4650    3.3840   50.3980 C   0  0  0  0  0  0  0  0  0  0  0  0
    1.9590    0.6170   50.5930 C   0  0  0  0  0  0  0  0  0  0  0  0
    1.2520    1.4050   49.6800 C   0  0  0  0  0  0  0  0  0  0  0  0
    3.3720    8.4400   54.6020 C   0  0  0  0  0  0  0  0  0  0  0  0
    2.8430    4.7990   50.1780 C   0  0  0  0  0  0  0  0  0  0  0  0
    3.5420    6.3760   53.5170 C   0  0  0  0  0  0  0  0  0  0  0  0
    2.9410    8.1910   52.1940 C   0  0  0  0  0  0  0  0  0  0  0  0
    2.8420    5.4310   52.5650 C   0  0  0  0  0  0  0  0  0  0  0  0
    2.7300    7.1250   51.0340 C   0  0  0  0  0  0  0  0  0  0  0  0
    1.7360   -0.7720   53.3470 C   0  0  0  0  0  0  0  0  0  0  0  0
    0.3840    1.6910   46.6580 C   0  0  0  0  0  0  0  0  0  0  0  0
    2.2570   -1.3560   52.0110 C   0  0  0  0  0  0  0  0  0  0  0  0
    0.2730    0.5020   47.6050 C   0  0  0  0  0  0  0  0  0  0  0  0
    4.6830    8.4650   54.9070 N   0  0  0  0  0  0  0  0  0  0  0  0
    2.9220    7.6540   53.5470 N   0  0  0  0  0  0  0  0  0  0  0  0
    3.0990    5.7190   51.2060 N   0  0  0  0  0  0  0  0  0  0  0  0
    2.9570    5.2210   49.0290 O   0  0  0  0  0  0  0  0  0  0  0  0
    1.6970   -0.7140   50.8060 O   0  0  0  0  0  0  0  0  0  0  0  0
    0.2160    0.8520   48.9890 O   0  0  0  0  0  0  0  0  0  0  0  0
  1  2  2  0
  1  5  1  0
  2  7  1  0
  3  4  2  0
  3  8  1  0
  4  9  1  0
  5 11  2  0
  6  8  2  0
  6 10  1  0
  7 21  2  0
  8 12  1  0
  9 10  2  0
  9 25  1  0
 10 26  1  0
 11 21  1  0
 11 22  1  0
 12 23  1  0
 12 24  2  0
 13 15  1  0
 13 22  1  0
 14 16  1  0
 14 22  1  0
 15 23  1  0
 16 23  1  0
 17 19  1  0
 18 20  1  0
 19 25  1  0
 20 26  1  0
M  END
>  <washed_aromatic_smiles>  (516) 
CCOc1ccc(cc1OCC)C(=O)N2CCN(CC2)c3ccccn3

>  <name>  (516) 
neg110919

$$$$
neg49375
     RDKit          3D

 26 27  0  0  0  0  0  0  0  0999 V2000
    3.0010    3.9440   52.5800 C   0  0  0  0  0  0  0  0  0  0  0  0
    3.1980    5.3270   52.7100 C   0  0  0  0  0  0  0  0  0  0  0  0
    1.0350   -0.8310   48.8950 C   0  0  0  0  0  0  0  0  0  0  0  0
    0.5820    1.4730   48.8200 C   0  0  0  0  0  0  0  0  0  0  0  0
    3.1330    4.1300   50.2150 C   0  0  0  0  0  0  0  0  0  0  0  0
    1.2270   -0.7910   47.5240 C   0  0  0  0  0  0  0  0  0  0  0  0
    0.6670    1.4210   47.4360 C   0  0  0  0  0  0  0  0  0  0  0  0
    0.6870    0.3120   49.5840 C   0  0  0  0  0  0  0  0  0  0  0  0
    2.9030    3.3790   51.3280 C   0  0  0  0  0  0  0  0  0  0  0  0
    3.1300    6.1230   51.5920 C   0  0  0  0  0  0  0  0  0  0  0  0
    3.2180    5.5120   50.3540 C   0  0  0  0  0  0  0  0  0  0  0  0
    0.4800    0.2690   51.0350 C   0  0  0  0  0  0  0  0  0  0  0  0
    3.4780    1.0130   51.5350 C   0  0  0  0  0  0  0  0  0  0  0  0
    3.6810    8.7640   53.6940 C   0  0  0  0  0  0  0  0  0  0  0  0
    1.5820    4.9710   48.0650 C   0  0  0  0  0  0  0  0  0  0  0  0
    1.2890   -0.2870   53.3290 C   0  0  0  0  0  0  0  0  0  0  0  0
    2.8530   -0.3540   51.4600 C   0  0  0  0  0  0  0  0  0  0  0  0
    2.5130    8.2150   52.8750 C   0  0  0  0  0  0  0  0  0  0  0  0
    2.9560    5.7380   48.0800 C   0  0  0  0  0  0  0  0  0  0  0  0
    0.9910    0.3020   46.8050 N   0  0  0  0  0  0  0  0  0  0  0  0
    2.6700    2.0340   51.1470 N   0  0  0  0  0  0  0  0  0  0  0  0
    1.4460   -0.3110   51.8690 N   0  0  0  0  0  0  0  0  0  0  0  0
   -0.4930    0.8010   51.5480 O   0  0  0  0  0  0  0  0  0  0  0  0
    4.5920    1.2270   51.9430 O   0  0  0  0  0  0  0  0  0  0  0  0
    2.9520    7.4980   51.6930 O   0  0  0  0  0  0  0  0  0  0  0  0
    3.3740    6.2900   49.2910 O   0  0  0  0  0  0  0  0  0  0  0  0
  1  2  2  0
  1  9  1  0
  2 10  1  0
  3  6  2  0
  3  8  1  0
  4  7  1  0
  4  8  2  0
  5  9  2  0
  5 11  1  0
  6 20  1  0
  7 20  2  0
  8 12  1  0
  9 21  1  0
 10 11  2  0
 10 25  1  0
 11 26  1  0
 12 22  1  0
 12 23  2  0
 13 17  1  0
 13 21  1  0
 13 24  2  0
 14 18  1  0
 15 19  1  0
 16 22  1  0
 17 22  1  0
 18 25  1  0
 19 26  1  0
M  END
>  <washed_aromatic_smiles>  (517) 
CCOc1ccc(cc1OCC)NC(=O)CN(C)C(=O)c2ccncc2

>  <name>  (517) 
neg49375

$$$$
neg107587
     RDKit          3D

 28 30  0  0  0  0  0  0  0  0999 V2000
    1.2160    3.4050   47.9760 C   0  0  0  0  0  0  0  0  0  0  0  0
    0.9800    2.0340   48.0110 C   0  0  0  0  0  0  0  0  0  0  0  0
    1.6530    4.0820   49.0960 C   0  0  0  0  0  0  0  0  0  0  0  0
    3.5580    6.4020   53.0290 C   0  0  0  0  0  0  0  0  0  0  0  0
    1.6370    7.7350   52.4520 C   0  0  0  0  0  0  0  0  0  0  0  0
    1.2020    1.3280   49.1840 C   0  0  0  0  0  0  0  0  0  0  0  0
    4.1180    7.5110   53.6320 C   0  0  0  0  0  0  0  0  0  0  0  0
    2.2340    8.8460   53.0500 C   0  0  0  0  0  0  0  0  0  0  0  0
    1.8500    3.4060   50.3000 C   0  0  0  0  0  0  0  0  0  0  0  0
    2.3260    6.5220   52.3930 C   0  0  0  0  0  0  0  0  0  0  0  0
    1.6420    2.0100   50.3220 C   0  0  0  0  0  0  0  0  0  0  0  0
    3.4960    8.7420   53.6420 C   0  0  0  0  0  0  0  0  0  0  0  0
    2.2520    4.1650   51.4730 C   0  0  0  0  0  0  0  0  0  0  0  0
    5.2740   10.6730   57.7030 C   0  0  0  0  0  0  0  0  0  0  0  0
    4.3760    8.3660   57.3690 C   0  0  0  0  0  0  0  0  0  0  0  0
    4.0860   11.2100   56.8820 C   0  0  0  0  0  0  0  0  0  0  0  0
    3.1870    9.0070   56.6440 C   0  0  0  0  0  0  0  0  0  0  0  0
    2.3840   -0.5330   53.0160 C   0  0  0  0  0  0  0  0  0  0  0  0
    6.3370    8.6920   58.8380 C   0  0  0  0  0  0  0  0  0  0  0  0
    2.1260   -0.0980   51.5770 C   0  0  0  0  0  0  0  0  0  0  0  0
    5.0720    9.2990   58.3220 N   0  0  0  0  0  0  0  0  0  0  0  0
    3.6010   10.2170   55.9220 N   0  0  0  0  0  0  0  0  0  0  0  0
    1.7950    5.4790   51.5870 N   0  0  0  0  0  0  0  0  0  0  0  0
    2.9170    3.6740   52.3720 O   0  0  0  0  0  0  0  0  0  0  0  0
    5.7320    9.5600   54.7560 O   0  0  0  0  0  0  0  0  0  0  0  0
    4.3670   11.2370   53.7040 O   0  0  0  0  0  0  0  0  0  0  0  0
    1.8580    1.3160   51.4900 O   0  0  0  0  0  0  0  0  0  0  0  0
    4.4210   10.0390   54.4730 S   0  0  0  0  0  0  0  0  0  0  0  0
  1  2  2  0
  1  3  1  0
  2  6  1  0
  3  9  2  0
  4  7  2  0
  4 10  1  0
  5  8  1  0
  5 10  2  0
  6 11  2  0
  7 12  1  0
  8 12  2  0
  9 11  1  0
  9 13  1  0
 10 23  1  0
 11 27  1  0
 12 28  1  0
 13 23  1  0
 13 24  2  0
 14 16  1  0
 14 21  1  0
 15 17  1  0
 15 21  1  0
 16 22  1  0
 17 22  1  0
 18 20  1  0
 19 21  1  0
 20 27  1  0
 22 28  1  0
 25 28  2  0
 26 28  2  0
M  CHG  1  21   1
M  END
>  <washed_aromatic_smiles>  (518) 
CCOc1ccccc1C(=O)Nc2ccc(cc2)S(=O)(=O)N3CCN(CC3)C

>  <name>  (518) 
neg107587

$$$$
neg270853
     RDKit          3D

 25 26  0  0  0  0  0  0  0  0999 V2000
    4.9730    8.3460   57.2780 C   0  0  0  0  0  0  0  0  0  0  0  0
    5.2910    9.6920   57.1480 C   0  0  0  0  0  0  0  0  0  0  0  0
    1.4720    1.8120   49.7650 C   0  0  0  0  0  0  0  0  0  0  0  0
    1.5350    3.7760   48.3800 C   0  0  0  0  0  0  0  0  0  0  0  0
    4.4560    7.6400   56.1970 C   0  0  0  0  0  0  0  0  0  0  0  0
    2.0040    2.5400   50.8260 C   0  0  0  0  0  0  0  0  0  0  0  0
    2.0740    4.5110   49.4280 C   0  0  0  0  0  0  0  0  0  0  0  0
    5.1480   10.3240   55.9160 C   0  0  0  0  0  0  0  0  0  0  0  0
    1.2190    2.4280   48.5380 C   0  0  0  0  0  0  0  0  0  0  0  0
    2.2780    3.9030   50.6730 C   0  0  0  0  0  0  0  0  0  0  0  0
    4.2310    8.2800   54.9750 C   0  0  0  0  0  0  0  0  0  0  0  0
    4.6570    9.6110   54.8210 C   0  0  0  0  0  0  0  0  0  0  0  0
    3.0220    5.9470   52.0200 C   0  0  0  0  0  0  0  0  0  0  0  0
    0.5920    1.6630   47.3880 C   0  0  0  0  0  0  0  0  0  0  0  0
    4.9920   12.6230   53.2740 C   0  0  0  0  0  0  0  0  0  0  0  0
    1.7290    9.2720   52.7330 C   0  0  0  0  0  0  0  0  0  0  0  0
    3.7240    6.3490   53.3210 C   0  0  0  0  0  0  0  0  0  0  0  0
    5.5280   11.2000   53.1140 C   0  0  0  0  0  0  0  0  0  0  0  0
    2.7680    4.5970   51.8340 N   0  0  0  0  0  0  0  0  0  0  0  0
    3.4420    7.6660   53.9490 N   0  0  0  0  0  0  0  0  0  0  0  0
    2.7530    6.7520   51.1580 O   0  0  0  0  0  0  0  0  0  0  0  0
    1.6040    8.8110   55.2810 O   0  0  0  0  0  0  0  0  0  0  0  0
    0.9710    7.0350   53.7750 O   0  0  0  0  0  0  0  0  0  0  0  0
    4.5900   10.2000   53.5690 O   0  0  0  0  0  0  0  0  0  0  0  0
    1.8330    8.1270   54.0560 S   0  0  0  0  0  0  0  0  0  0  0  0
  1  2  2  0
  1  5  1  0
  2  8  1  0
  3  6  2  0
  3  9  1  0
  4  7  1  0
  4  9  2  0
  5 11  2  0
  6 10  1  0
  7 10  2  0
  8 12  2  0
  9 14  1  0
 10 19  1  0
 11 12  1  0
 11 20  1  0
 12 24  1  0
 13 17  1  0
 13 19  1  0
 13 21  2  0
 15 18  1  0
 16 25  1  0
 17 20  1  0
 18 24  1  0
 20 25  1  0
 22 25  2  0
 23 25  2  0
M  END
>  <washed_aromatic_smiles>  (519) 
CCOc1ccccc1N(CC(=O)Nc2ccc(cc2)C)S(=O)(=O)C

>  <name>  (519) 
neg270853

$$$$
neg286672
     RDKit          3D

 25 27  0  0  0  0  0  0  0  0999 V2000
    4.7840   10.8110   57.8240 C   0  0  0  0  0  0  0  0  0  0  0  0
    5.1070   12.1350   57.5450 C   0  0  0  0  0  0  0  0  0  0  0  0
    2.5110    1.9630   51.0400 C   0  0  0  0  0  0  0  0  0  0  0  0
    4.4520    9.9320   56.7950 C   0  0  0  0  0  0  0  0  0  0  0  0
    2.6320    3.2330   51.5860 C   0  0  0  0  0  0  0  0  0  0  0  0
    5.0560   12.6010   56.2360 C   0  0  0  0  0  0  0  0  0  0  0  0
    1.9710    1.7970   49.7750 C   0  0  0  0  0  0  0  0  0  0  0  0
    1.6910    4.2020   49.5730 C   0  0  0  0  0  0  0  0  0  0  0  0
    4.4610   10.3690   55.4590 C   0  0  0  0  0  0  0  0  0  0  0  0
    2.2140    4.3610   50.8590 C   0  0  0  0  0  0  0  0  0  0  0  0
    4.7200   11.7280   55.2080 C   0  0  0  0  0  0  0  0  0  0  0  0
    1.5690    2.9130   49.0430 C   0  0  0  0  0  0  0  0  0  0  0  0
    3.0420    6.0530   52.5160 C   0  0  0  0  0  0  0  0  0  0  0  0
    3.0690    9.6220   53.5000 C   0  0  0  0  0  0  0  0  0  0  0  0
    4.5570    8.0610   54.6060 C   0  0  0  0  0  0  0  0  0  0  0  0
    2.6700    8.4480   52.5840 C   0  0  0  0  0  0  0  0  0  0  0  0
    3.2700    7.2340   54.6080 C   0  0  0  0  0  0  0  0  0  0  0  0
    6.2220   11.0400   52.4860 C   0  0  0  0  0  0  0  0  0  0  0  0
    5.8220   12.3440   53.1780 C   0  0  0  0  0  0  0  0  0  0  0  0
    4.2770    9.4610   54.3620 N   0  0  0  0  0  0  0  0  0  0  0  0
    2.6840    7.1520   53.2590 N   0  0  0  0  0  0  0  0  0  0  0  0
    2.2600    5.6840   51.4270 N   0  0  0  0  0  0  0  0  0  0  0  0
    4.0210    5.4100   52.8490 O   0  0  0  0  0  0  0  0  0  0  0  0
    4.6280   12.2290   53.9350 O   0  0  0  0  0  0  0  0  0  0  0  0
    0.8870    2.6480   47.4800 Cl  0  0  0  0  0  0  0  0  0  0  0  0
  1  2  2  0
  1  4  1  0
  2  6  1  0
  3  5  2  0
  3  7  1  0
  4  9  2  0
  5 10  1  0
  6 11  2  0
  7 12  2  0
  8 10  2  0
  8 12  1  0
  9 11  1  0
  9 20  1  0
 10 22  1  0
 11 24  1  0
 12 25  1  0
 13 21  1  0
 13 22  1  0
 13 23  2  0
 14 16  1  0
 14 20  1  0
 15 17  1  0
 15 20  1  0
 16 21  1  0
 17 21  1  0
 18 19  1  0
 19 24  1  0
M  END
>  <washed_aromatic_smiles>  (520) 
CCOc1ccccc1N2CCN(CC2)C(=O)Nc3cccc(c3)Cl

>  <name>  (520) 
neg286672

$$$$
neg63052
     RDKit          3D

 27 29  0  0  0  0  0  0  0  0999 V2000
    1.2850    3.1960   48.3830 C   0  0  0  0  0  0  0  0  0  0  0  0
    1.3680    1.8350   48.6710 C   0  0  0  0  0  0  0  0  0  0  0  0
    3.5310    6.6740   53.3010 C   0  0  0  0  0  0  0  0  0  0  0  0
    1.8350    8.1980   52.5770 C   0  0  0  0  0  0  0  0  0  0  0  0
    1.6220    4.1410   49.3470 C   0  0  0  0  0  0  0  0  0  0  0  0
    1.8250    1.4080   49.9160 C   0  0  0  0  0  0  0  0  0  0  0  0
    4.3000    7.7520   53.7170 C   0  0  0  0  0  0  0  0  0  0  0  0
    2.6410    9.2700   52.9440 C   0  0  0  0  0  0  0  0  0  0  0  0
    2.3240    6.8900   52.6390 C   0  0  0  0  0  0  0  0  0  0  0  0
    2.0600    3.7200   50.6040 C   0  0  0  0  0  0  0  0  0  0  0  0
    2.1860    2.3500   50.8820 C   0  0  0  0  0  0  0  0  0  0  0  0
    3.9010    9.0580   53.4980 C   0  0  0  0  0  0  0  0  0  0  0  0
    1.6530    5.8080   51.9210 C   0  0  0  0  0  0  0  0  0  0  0  0
    3.4350    9.5000   57.6200 C   0  0  0  0  0  0  0  0  0  0  0  0
    3.0760   10.6080   56.6590 C   0  0  0  0  0  0  0  0  0  0  0  0
    4.3810    8.5240   56.9370 C   0  0  0  0  0  0  0  0  0  0  0  0
    4.3290   11.3500   56.2170 C   0  0  0  0  0  0  0  0  0  0  0  0
    5.5740    9.2730   56.3280 C   0  0  0  0  0  0  0  0  0  0  0  0
    2.6250    0.5540   54.1620 C   0  0  0  0  0  0  0  0  0  0  0  0
    2.5270    0.5990   52.6390 C   0  0  0  0  0  0  0  0  0  0  0  0
    5.2120   10.4510   55.4960 N   0  0  0  0  0  0  0  0  0  0  0  0
    2.4050    4.6880   51.5860 N   0  0  0  0  0  0  0  0  0  0  0  0
    0.4820    5.8660   51.5710 O   0  0  0  0  0  0  0  0  0  0  0  0
    6.3770    9.8850   53.3380 O   0  0  0  0  0  0  0  0  0  0  0  0
    4.6510   11.5780   53.2920 O   0  0  0  0  0  0  0  0  0  0  0  0
    2.6620    1.9490   52.1250 O   0  0  0  0  0  0  0  0  0  0  0  0
    5.1210   10.3430   53.8300 S   0  0  0  0  0  0  0  0  0  0  0  0
  1  2  2  0
  1  5  1  0
  2  6  1  0
  3  7  2  0
  3  9  1  0
  4  8  1  0
  4  9  2  0
  5 10  2  0
  6 11  2  0
  7 12  1  0
  8 12  2  0
  9 13  1  0
 10 11  1  0
 10 22  1  0
 11 26  1  0
 12 27  1  0
 13 22  1  0
 13 23  2  0
 14 15  1  0
 14 16  1  0
 15 17  1  0
 16 18  1  0
 17 21  1  0
 18 21  1  0
 19 20  1  0
 20 26  1  0
 21 27  1  0
 24 27  2  0
 25 27  2  0
M  END
>  <washed_aromatic_smiles>  (521) 
CCOc1ccccc1NC(=O)c2ccc(cc2)S(=O)(=O)N3CCCCC3

>  <name>  (521) 
neg63052

$$$$
neg254395
     RDKit          3D

 27 29  0  0  0  0  0  0  0  0999 V2000
    3.1250    7.9110   55.1920 C   0  0  0  0  0  0  0  0  0  0  0  0
    3.3940    6.6610   54.6690 C   0  0  0  0  0  0  0  0  0  0  0  0
    5.1450   13.1690   55.5940 C   0  0  0  0  0  0  0  0  0  0  0  0
    3.0920    8.9840   54.3440 C   0  0  0  0  0  0  0  0  0  0  0  0
    3.3600    6.4380   53.3120 C   0  0  0  0  0  0  0  0  0  0  0  0
    5.1690   12.5870   54.3290 C   0  0  0  0  0  0  0  0  0  0  0  0
    5.3330   10.4180   55.3460 C   0  0  0  0  0  0  0  0  0  0  0  0
    5.2870   12.3560   56.7270 C   0  0  0  0  0  0  0  0  0  0  0  0
    5.2700   10.9620   56.5920 C   0  0  0  0  0  0  0  0  0  0  0  0
    3.4160    8.8050   52.9850 C   0  0  0  0  0  0  0  0  0  0  0  0
    3.1260    7.5000   52.4900 C   0  0  0  0  0  0  0  0  0  0  0  0
    5.3080   11.2040   54.2240 C   0  0  0  0  0  0  0  0  0  0  0  0
    5.5180   12.0490   59.0990 C   0  0  0  0  0  0  0  0  0  0  0  0
    5.4760   10.5930   58.9000 C   0  0  0  0  0  0  0  0  0  0  0  0
    0.3120    6.7840   52.2730 C   0  0  0  0  0  0  0  0  0  0  0  0
    6.1540   14.2200   58.1680 C   0  0  0  0  0  0  0  0  0  0  0  0
    5.4170    8.5650   57.5610 C   0  0  0  0  0  0  0  0  0  0  0  0
    1.4150    6.2560   51.3440 C   0  0  0  0  0  0  0  0  0  0  0  0
    5.5500   12.8880   58.0060 N   0  0  0  0  0  0  0  0  0  0  0  0
    5.2810   10.0650   57.6700 N   0  0  0  0  0  0  0  0  0  0  0  0
    4.2350    9.6290   52.3300 N   0  0  0  0  0  0  0  0  0  0  0  0
    5.5820   12.5720   60.1990 O   0  0  0  0  0  0  0  0  0  0  0  0
    5.7310    9.7770   59.7570 O   0  0  0  0  0  0  0  0  0  0  0  0
    6.5370    9.2160   53.2470 O   0  0  0  0  0  0  0  0  0  0  0  0
    6.1880   11.1450   51.8140 O   0  0  0  0  0  0  0  0  0  0  0  0
    2.5830    7.1760   51.2660 O   0  0  0  0  0  0  0  0  0  0  0  0
    5.6570   10.2590   52.7990 S   0  0  2  0  0  0  0  0  0  0  0  0
  1  2  2  0
  1  4  1  0
  2  5  1  0
  3  6  2  0
  3  8  1  0
  4 10  2  0
  5 11  2  0
  6 12  1  0
  7  9  1  0
  7 12  2  0
  8  9  2  0
  8 19  1  0
  9 20  1  0
 10 11  1  0
 10 21  1  0
 11 26  1  0
 12 27  1  0
 13 14  1  0
 13 19  1  0
 13 22  2  0
 14 20  1  0
 14 23  2  0
 15 18  1  0
 16 19  1  0
 17 20  1  0
 18 26  1  0
 21 27  2  0
 24 27  2  0
 27 25  1  6
M  CHG  1  25  -1
M  END
>  <washed_aromatic_smiles>  (522) 
CCOc1ccccc1NS(=O)(=O)c2ccc3c(c2)n(c(=O)c(=O)n3C)C

>  <name>  (522) 
neg254395

$$$$
neg31141
     RDKit          3D

 31 33  0  0  0  0  0  0  0  0999 V2000
    3.9820   10.2580   57.6920 C   0  0  0  0  0  0  0  0  0  0  0  0
    4.9230   11.1270   57.1600 C   0  0  0  0  0  0  0  0  0  0  0  0
    2.9850    5.9680   49.8610 C   0  0  0  0  0  0  0  0  0  0  0  0
    3.3900    9.2770   56.8960 C   0  0  0  0  0  0  0  0  0  0  0  0
    5.2630   11.0400   55.8200 C   0  0  0  0  0  0  0  0  0  0  0  0
    3.0060    5.1590   48.7260 C   0  0  0  0  0  0  0  0  0  0  0  0
    1.3670    4.4780   50.8330 C   0  0  0  0  0  0  0  0  0  0  0  0
    2.1130    5.6530   50.9090 C   0  0  0  0  0  0  0  0  0  0  0  0
    3.7460    9.1680   55.5540 C   0  0  0  0  0  0  0  0  0  0  0  0
    4.6450   10.0890   55.0010 C   0  0  0  0  0  0  0  0  0  0  0  0
    2.2470    3.9840   48.6770 C   0  0  0  0  0  0  0  0  0  0  0  0
    1.5610    3.5510   49.8070 C   0  0  0  0  0  0  0  0  0  0  0  0
    2.4650    7.6520   52.5030 C   0  0  0  0  0  0  0  0  0  0  0  0
    2.9200   -0.0470   53.6020 C   0  0  0  0  0  0  0  0  0  0  0  0
    1.6460   -0.5680   52.9460 C   0  0  0  0  0  0  0  0  0  0  0  0
    3.5930    0.8170   52.5230 C   0  0  0  0  0  0  0  0  0  0  0  0
    0.7530    0.5680   52.4430 C   0  0  0  0  0  0  0  0  0  0  0  0
    2.7340    2.0090   52.2470 C   0  0  0  0  0  0  0  0  0  0  0  0
    4.9690   12.4870   53.0200 C   0  0  0  0  0  0  0  0  0  0  0  0
    1.0640    2.3750   47.0430 C   0  0  0  0  0  0  0  0  0  0  0  0
    2.1270    8.2010   53.8760 C   0  0  0  0  0  0  0  0  0  0  0  0
    5.6240   11.0960   52.9330 C   0  0  0  0  0  0  0  0  0  0  0  0
    1.4560    1.6100   51.6910 N   0  0  0  0  0  0  0  0  0  0  0  0
    1.9360    6.4240   52.1240 N   0  0  0  0  0  0  0  0  0  0  0  0
    3.1680    8.2920   51.7630 O   0  0  0  0  0  0  0  0  0  0  0  0
    0.0000    1.3580   49.6740 O   0  0  0  0  0  0  0  0  0  0  0  0
    2.3770    1.1080   49.4870 O   0  0  0  0  0  0  0  0  0  0  0  0
    2.1820    3.2610   47.4920 O   0  0  0  0  0  0  0  0  0  0  0  0
    3.2380    8.0990   54.8170 O   0  0  0  0  0  0  0  0  0  0  0  0
    4.8940   10.0630   53.6430 O   0  0  0  0  0  0  0  0  0  0  0  0
    1.2940    1.7760   50.0840 S   0  0  0  0  0  0  0  0  0  0  0  0
  1  2  2  0
  1  4  1  0
  2  5  1  0
  3  6  2  0
  3  8  1  0
  4  9  2  0
  5 10  2  0
  6 11  1  0
  7  8  2  0
  7 12  1  0
  8 24  1  0
  9 10  1  0
  9 29  1  0
 10 30  1  0
 11 12  2  0
 11 28  1  0
 12 31  1  0
 13 21  1  0
 13 24  1  0
 13 25  2  0
 14 15  1  0
 14 16  1  0
 15 17  1  0
 16 18  1  0
 17 23  1  0
 18 23  1  0
 19 22  1  0
 20 28  1  0
 21 29  1  0
 22 30  1  0
 23 31  1  0
 26 31  2  0
 27 31  2  0
M  END
>  <washed_aromatic_smiles>  (523) 
CCOc1ccccc1OCC(=O)Nc2ccc(c(c2)S(=O)(=O)N3CCCCC3)OC

>  <name>  (523) 
neg31141

$$$$
neg324544
     RDKit          3D

 30 32  0  0  0  0  0  0  0  0999 V2000
    5.3240   13.2090   56.7330 C   0  0  0  0  0  0  0  0  0  0  0  0
    5.4210   12.3060   57.7860 C   0  0  0  0  0  0  0  0  0  0  0  0
    1.4420    6.8670   51.8610 C   0  0  0  0  0  0  0  0  0  0  0  0
    3.2420    5.4480   52.5760 C   0  0  0  0  0  0  0  0  0  0  0  0
    5.0760   12.7640   55.4370 C   0  0  0  0  0  0  0  0  0  0  0  0
    5.2570   10.9460   57.5540 C   0  0  0  0  0  0  0  0  0  0  0  0
    1.0970    5.9140   50.8950 C   0  0  0  0  0  0  0  0  0  0  0  0
    2.8250    4.4900   51.6690 C   0  0  0  0  0  0  0  0  0  0  0  0
    2.6810   -0.2350   52.5030 C   0  0  0  0  0  0  0  0  0  0  0  0
    1.3380   -0.1550   52.3170 C   0  0  0  0  0  0  0  0  0  0  0  0
    3.5500    0.4840   51.6320 C   0  0  0  0  0  0  0  0  0  0  0  0
    2.6050    6.6790   52.6150 C   0  0  0  0  0  0  0  0  0  0  0  0
    4.9100   11.4020   55.1950 C   0  0  0  0  0  0  0  0  0  0  0  0
    4.9950   10.4950   56.2610 C   0  0  0  0  0  0  0  0  0  0  0  0
    1.8790    4.7740   50.7070 C   0  0  0  0  0  0  0  0  0  0  0  0
    1.7110    1.4280   50.5390 C   0  0  0  0  0  0  0  0  0  0  0  0
    3.2740    9.0260   53.1340 C   0  0  0  0  0  0  0  0  0  0  0  0
    2.3620    9.2590   56.6350 C   0  0  0  0  0  0  0  0  0  0  0  0
    4.6220    9.7300   53.2350 C   0  0  0  0  0  0  0  0  0  0  0  0
    3.7050    8.5450   56.8240 C   0  0  0  0  0  0  0  0  0  0  0  0
    0.8610    0.6090   51.2770 N   0  0  0  0  0  0  0  0  0  0  0  0
    3.0980    1.2620   50.7230 N   0  0  0  0  0  0  0  0  0  0  0  0
    3.2860    7.6720   53.3750 N   0  0  0  0  0  0  0  0  0  0  0  0
    1.1580    2.3240   49.8210 N   0  0  0  0  0  0  0  0  0  0  0  0
    2.2600    9.5750   52.7620 O   0  0  0  0  0  0  0  0  0  0  0  0
    3.1900    3.4520   48.8460 O   0  0  0  0  0  0  0  0  0  0  0  0
    1.0330    4.3010   48.2690 O   0  0  0  0  0  0  0  0  0  0  0  0
    4.6190   11.0340   53.8860 O   0  0  0  0  0  0  0  0  0  0  0  0
    4.7650    9.1580   56.0670 O   0  0  0  0  0  0  0  0  0  0  0  0
    1.8520    3.6990   49.2550 S   0  0  0  0  0  0  0  0  0  0  0  0
  1  2  2  0
  1  5  1  0
  2  6  1  0
  3  7  2  0
  3 12  1  0
  4  8  1  0
  4 12  2  0
  5 13  2  0
  6 14  2  0
  7 15  1  0
  8 15  2  0
  9 10  2  0
  9 11  1  0
 10 21  1  0
 11 22  2  0
 12 23  1  0
 13 14  1  0
 13 28  1  0
 14 29  1  0
 15 30  1  0
 16 21  1  0
 16 22  1  0
 16 24  2  0
 17 19  1  0
 17 23  1  0
 17 25  2  0
 18 20  1  0
 19 28  1  0
 20 29  1  0
 24 30  1  0
 26 30  2  0
 27 30  2  0
M  END
>  <washed_aromatic_smiles>  (524) 
CCOc1ccccc1OCC(=O)Nc2ccc(cc2)S(=O)(=O)Nc3ncccn3

>  <name>  (524) 
neg324544

$$$$
neg175503
     RDKit          3D

 26 28  0  0  0  0  0  0  0  0999 V2000
    0.9310    0.2740   49.4770 C   0  0  0  0  0  0  0  0  0  0  0  0
    0.4930    0.9310   48.3330 C   0  0  0  0  0  0  0  0  0  0  0  0
    1.7220    0.9470   50.4000 C   0  0  0  0  0  0  0  0  0  0  0  0
    0.8350    2.2630   48.1210 C   0  0  0  0  0  0  0  0  0  0  0  0
    2.0720    2.2760   50.1830 C   0  0  0  0  0  0  0  0  0  0  0  0
    1.6200    2.9510   49.0470 C   0  0  0  0  0  0  0  0  0  0  0  0
    2.5280    6.8820   53.8740 C   0  0  0  0  0  0  0  0  0  0  0  0
    2.7220    8.9350   55.3720 C   0  0  0  0  0  0  0  0  0  0  0  0
    3.2090    8.8000   52.8840 C   0  0  0  0  0  0  0  0  0  0  0  0
    4.1130    9.5800   55.3430 C   0  0  0  0  0  0  0  0  0  0  0  0
    3.6410   10.2070   52.9950 C   0  0  0  0  0  0  0  0  0  0  0  0
    0.9550    6.4420   51.9800 C   0  0  0  0  0  0  0  0  0  0  0  0
    3.1570    5.2650   52.1910 C   0  0  0  0  0  0  0  0  0  0  0  0
    0.8330    5.5000   50.7640 C   0  0  0  0  0  0  0  0  0  0  0  0
    3.3180    5.3730   50.6660 C   0  0  0  0  0  0  0  0  0  0  0  0
    2.2650    8.3540   53.9910 C   0  0  0  0  0  0  0  0  0  0  0  0
    6.6460   10.8620   52.8310 C   0  0  0  0  0  0  0  0  0  0  0  0
    1.9740    4.4010   48.7560 C   0  0  0  0  0  0  0  0  0  0  0  0
    6.2930   11.9290   53.9000 C   0  0  0  0  0  0  0  0  0  0  0  0
    2.1900    6.2210   52.7420 N   0  0  0  0  0  0  0  0  0  0  0  0
    2.0520    5.3930   49.8940 N   0  0  0  0  0  0  0  0  0  0  0  0
    4.1610   10.5790   54.2840 N   0  0  0  0  0  0  0  0  0  0  0  0
    3.3980    6.4670   54.6230 O   0  0  0  0  0  0  0  0  0  0  0  0
    4.7220   12.4810   55.8470 O   0  0  0  0  0  0  0  0  0  0  0  0
    4.0550   13.0070   53.5670 O   0  0  0  0  0  0  0  0  0  0  0  0
    4.6940   12.1190   54.4690 S   0  0  0  0  0  0  0  0  0  0  0  0
  1  2  2  0
  1  3  1  0
  2  4  1  0
  3  5  2  0
  4  6  2  0
  5  6  1  0
  6 18  1  0
  7 16  1  0
  7 20  1  0
  7 23  2  0
  8 10  1  0
  8 16  1  0
  9 11  1  0
  9 16  1  0
 10 22  1  0
 11 22  1  0
 12 14  1  0
 12 20  1  0
 13 15  1  0
 13 20  1  0
 14 21  1  0
 15 21  1  0
 17 19  1  0
 18 21  1  0
 19 26  1  0
 22 26  1  0
 24 26  2  0
 25 26  2  0
M  CHG  1  21   1
M  END
>  <washed_aromatic_smiles>  (525) 
CCS(=O)(=O)N1CCC(CC1)C(=O)N2CCN(CC2)Cc3ccccc3

>  <name>  (525) 
neg175503

$$$$
neg183211
     RDKit          3D

 25 26  0  0  0  0  0  0  0  0999 V2000
    1.3180    3.7190   48.1170 C   0  0  0  0  0  0  0  0  0  0  0  0
    1.1200    2.3440   48.1840 C   0  0  0  0  0  0  0  0  0  0  0  0
    1.7410    4.4170   49.2320 C   0  0  0  0  0  0  0  0  0  0  0  0
    3.5570    6.7590   53.3510 C   0  0  0  0  0  0  0  0  0  0  0  0
    1.8080    8.1590   52.4970 C   0  0  0  0  0  0  0  0  0  0  0  0
    1.3860    1.6640   49.3600 C   0  0  0  0  0  0  0  0  0  0  0  0
    4.2090    7.8780   53.8440 C   0  0  0  0  0  0  0  0  0  0  0  0
    2.5170    9.2800   52.9170 C   0  0  0  0  0  0  0  0  0  0  0  0
    1.9620    3.7720   50.4490 C   0  0  0  0  0  0  0  0  0  0  0  0
    2.3940    6.9030   52.5920 C   0  0  0  0  0  0  0  0  0  0  0  0
    1.8430    2.3570   50.4940 C   0  0  0  0  0  0  0  0  0  0  0  0
    3.7420    9.1560   53.5770 C   0  0  0  0  0  0  0  0  0  0  0  0
    2.3180    4.5640   51.6210 C   0  0  0  0  0  0  0  0  0  0  0  0
    5.0030   10.0580   56.6830 C   0  0  0  0  0  0  0  0  0  0  0  0
    4.5770   10.4840   58.0610 C   0  0  0  0  0  0  0  0  0  0  0  0
    2.3990   -1.1880   51.3850 C   0  0  0  0  0  0  0  0  0  0  0  0
    1.4770   -0.1340   51.9590 C   0  0  0  0  0  0  0  0  0  0  0  0
    1.8320    5.8610   51.7810 N   0  0  0  0  0  0  0  0  0  0  0  0
    4.5160   10.8080   55.6520 N   0  0  0  0  0  0  0  0  0  0  0  0
    3.0130    4.1170   52.5050 O   0  0  0  0  0  0  0  0  0  0  0  0
    5.7200    9.0960   56.4960 O   0  0  0  0  0  0  0  0  0  0  0  0
    6.1680   10.1000   53.8530 O   0  0  0  0  0  0  0  0  0  0  0  0
    4.4550   11.6860   53.2800 O   0  0  0  0  0  0  0  0  0  0  0  0
    2.3010    1.4670   51.9300 S   0  0  0  0  0  0  0  0  0  0  0  0
    4.8230   10.5270   54.0140 S   0  0  0  0  0  0  0  0  0  0  0  0
  1  2  2  0
  1  3  1  0
  2  6  1  0
  3  9  2  0
  4  7  2  0
  4 10  1  0
  5  8  1  0
  5 10  2  0
  6 11  2  0
  7 12  1  0
  8 12  2  0
  9 11  1  0
  9 13  1  0
 10 18  1  0
 11 24  1  0
 12 25  1  0
 13 18  1  0
 13 20  2  0
 14 15  1  0
 14 19  1  0
 14 21  2  0
 16 17  1  0
 17 24  1  0
 19 25  1  0
 22 25  2  0
 23 25  2  0
M  END
>  <washed_aromatic_smiles>  (526) 
CCSc1ccccc1C(=O)Nc2ccc(cc2)S(=O)(=O)NC(=O)C

>  <name>  (526) 
neg183211

$$$$
neg310418
     RDKit          3D

 34 37  0  0  0  0  0  0  0  0999 V2000
    0.6440    8.8500   57.6360 C   0  0  0  0  0  0  0  0  0  0  0  0
    0.9650    0.0910   46.3680 C   0  0  0  0  0  0  0  0  0  0  0  0
   -0.2330    8.5380   56.6260 C   0  0  0  0  0  0  0  0  0  0  0  0
    0.6810    1.4380   46.1900 C   0  0  0  0  0  0  0  0  0  0  0  0
    1.9840    9.1370   57.3640 C   0  0  0  0  0  0  0  0  0  0  0  0
    1.0630   -0.4490   47.6430 C   0  0  0  0  0  0  0  0  0  0  0  0
    0.2280    8.5210   55.3230 C   0  0  0  0  0  0  0  0  0  0  0  0
    0.7150    2.2880   47.2790 C   0  0  0  0  0  0  0  0  0  0  0  0
    2.4520    9.2130   56.0790 C   0  0  0  0  0  0  0  0  0  0  0  0
    1.0070    0.3810   48.7540 C   0  0  0  0  0  0  0  0  0  0  0  0
    1.5630    8.9030   55.0560 C   0  0  0  0  0  0  0  0  0  0  0  0
    1.0460    1.7620   48.5350 C   0  0  0  0  0  0  0  0  0  0  0  0
    4.1330    9.9270   54.6790 C   0  0  0  0  0  0  0  0  0  0  0  0
    1.4420    0.5880   50.9870 C   0  0  0  0  0  0  0  0  0  0  0  0
    3.3290    9.5330   53.5470 C   0  0  0  0  0  0  0  0  0  0  0  0
    2.0540    1.8670   50.6960 C   0  0  0  0  0  0  0  0  0  0  0  0
    5.3140   11.9570   53.6530 C   0  0  0  0  0  0  0  0  0  0  0  0
    2.6100   -0.7720   52.7890 C   0  0  0  0  0  0  0  0  0  0  0  0
    5.4460   10.6480   54.4510 C   0  0  0  0  0  0  0  0  0  0  0  0
    1.4190    0.1150   52.4270 C   0  0  0  0  0  0  0  0  0  0  0  0
    1.0140    9.1120   52.7310 C   0  0  0  0  0  0  0  0  0  0  0  0
    1.7700    4.0070   49.2430 C   0  0  0  0  0  0  0  0  0  0  0  0
    0.8620    7.6660   52.2750 C   0  0  0  0  0  0  0  0  0  0  0  0
    2.6940    4.8250   50.1140 C   0  0  0  0  0  0  0  0  0  0  0  0
    2.8560    6.5890   52.8670 C   0  0  0  0  0  0  0  0  0  0  0  0
    3.3040    5.2990   52.2850 C   0  0  0  0  0  0  0  0  0  0  0  0
    3.7330    9.7430   55.8730 N   0  0  0  0  0  0  0  0  0  0  0  0
    0.9770   -0.1460   50.0530 N   0  0  0  0  0  0  0  0  0  0  0  0
    1.9980    9.1720   53.7780 N   0  0  0  0  0  0  0  0  0  0  0  0
    1.5930    2.5590   49.5540 N   0  0  0  0  0  0  0  0  0  0  0  0
    3.7840    9.4840   52.4140 O   0  0  0  0  0  0  0  0  0  0  0  0
    2.9920    2.2800   51.3760 O   0  0  0  0  0  0  0  0  0  0  0  0
    2.1110    7.2080   51.8400 O   0  0  0  0  0  0  0  0  0  0  0  0
    2.2910    4.7620   51.4660 O   0  0  0  0  0  0  0  0  0  0  0  0
  1  3  2  0
  1  5  1  0
  2  4  2  0
  2  6  1  0
  3  7  1  0
  4  8  1  0
  5  9  2  0
  6 10  2  0
  7 11  2  0
  8 12  2  0
  9 11  1  0
  9 27  1  0
 10 12  1  0
 10 28  1  0
 11 29  1  0
 12 30  1  0
 13 15  1  0
 13 19  1  0
 13 27  2  0
 14 16  1  0
 14 20  1  0
 14 28  2  0
 15 29  1  0
 15 31  2  0
 16 30  1  0
 16 32  2  0
 17 19  1  0
 18 20  1  0
 21 23  1  0
 21 29  1  0
 22 24  1  0
 22 30  1  0
 23 33  1  0
 24 34  1  0
 25 26  1  0
 25 33  1  0
 26 34  1  0
M  END
>  <washed_aromatic_smiles>  (527) 
CCc1c(=O)n(c2ccccc2n1)CCOCCOCCn3c4ccccc4nc(c3=O)CC

>  <name>  (527) 
neg310418

$$$$
neg28466
     RDKit          3D

 26 28  0  0  0  0  0  0  0  0999 V2000
    3.0190    4.9820   52.3750 C   0  0  0  0  0  0  0  0  0  0  0  0
    1.1030    5.8190   51.2260 C   0  0  0  0  0  0  0  0  0  0  0  0
    3.3260    6.2540   52.8280 C   0  0  0  0  0  0  0  0  0  0  0  0
    1.3220    7.0520   51.8270 C   0  0  0  0  0  0  0  0  0  0  0  0
    1.7570    1.0890   50.3550 C   0  0  0  0  0  0  0  0  0  0  0  0
    1.9810    4.7700   51.4690 C   0  0  0  0  0  0  0  0  0  0  0  0
    2.5010    7.3200   52.5250 C   0  0  0  0  0  0  0  0  0  0  0  0
    1.1370    0.9410   49.1070 C   0  0  0  0  0  0  0  0  0  0  0  0
    1.8060   -0.1650   50.8610 C   0  0  0  0  0  0  0  0  0  0  0  0
    2.2810    2.2630   51.0440 C   0  0  0  0  0  0  0  0  0  0  0  0
    4.0580    9.0940   57.3850 C   0  0  0  0  0  0  0  0  0  0  0  0
    5.0780    9.4490   56.3020 C   0  0  0  0  0  0  0  0  0  0  0  0
    2.6540    9.3890   56.8500 C   0  0  0  0  0  0  0  0  0  0  0  0
    4.7330    8.8260   54.9390 C   0  0  0  0  0  0  0  0  0  0  0  0
    2.4080    8.7130   55.4980 C   0  0  0  0  0  0  0  0  0  0  0  0
    2.3360   -0.7130   52.1680 C   0  0  0  0  0  0  0  0  0  0  0  0
    0.2290    1.4380   46.7730 C   0  0  0  0  0  0  0  0  0  0  0  0
    0.8540    1.9990   48.0590 C   0  0  0  0  0  0  0  0  0  0  0  0
    0.8370   -0.2990   48.9180 N   0  0  0  0  0  0  0  0  0  0  0  0
    3.3550    9.1200   54.5110 N   0  0  0  0  0  0  0  0  0  0  0  0
    1.7440    3.5250   50.7830 N   0  0  0  0  0  0  0  0  0  0  0  0
    3.1550    2.1480   51.8890 O   0  0  0  0  0  0  0  0  0  0  0  0
    4.0760    9.3850   52.1650 O   0  0  0  0  0  0  0  0  0  0  0  0
    1.7520    9.7710   52.6830 O   0  0  0  0  0  0  0  0  0  0  0  0
    1.2510   -0.9800   49.9850 O   0  0  0  0  0  0  0  0  0  0  0  0
    2.9320    9.0200   52.9140 S   0  0  0  0  0  0  0  0  0  0  0  0
  1  3  2  0
  1  6  1  0
  2  4  1  0
  2  6  2  0
  3  7  1  0
  4  7  2  0
  5  8  1  0
  5  9  2  0
  5 10  1  0
  6 21  1  0
  7 26  1  0
  8 18  1  0
  8 19  2  0
  9 16  1  0
  9 25  1  0
 10 21  1  0
 10 22  2  0
 11 12  1  0
 11 13  1  0
 12 14  1  0
 13 15  1  0
 14 20  1  0
 15 20  1  0
 17 18  1  0
 19 25  1  0
 20 26  1  0
 23 26  2  0
 24 26  2  0
M  END
>  <washed_aromatic_smiles>  (528) 
CCc1c(c(on1)C)C(=O)Nc2ccc(cc2)S(=O)(=O)N3CCCCC3

>  <name>  (528) 
neg28466

$$$$
neg208868
     RDKit          3D

 27 29  0  0  0  0  0  0  0  0999 V2000
    3.5120    7.1240   54.7350 C   0  0  0  0  0  0  0  0  0  0  0  0
    3.9090    7.8900   55.8040 C   0  0  0  0  0  0  0  0  0  0  0  0
    1.4750    5.1820   50.3650 C   0  0  0  0  0  0  0  0  0  0  0  0
    2.6480    3.2850   51.3050 C   0  0  0  0  0  0  0  0  0  0  0  0
    1.2380    4.4770   49.2070 C   0  0  0  0  0  0  0  0  0  0  0  0
    2.3180    2.5330   50.1830 C   0  0  0  0  0  0  0  0  0  0  0  0
    3.7630    8.9650   53.2320 C   0  0  0  0  0  0  0  0  0  0  0  0
    3.4110    7.6440   53.4280 C   0  0  0  0  0  0  0  0  0  0  0  0
    4.2530    9.2320   55.6050 C   0  0  0  0  0  0  0  0  0  0  0  0
    4.2160    9.7470   54.3000 C   0  0  0  0  0  0  0  0  0  0  0  0
    2.2830    4.6350   51.3580 C   0  0  0  0  0  0  0  0  0  0  0  0
    1.6340    3.1480   49.1270 C   0  0  0  0  0  0  0  0  0  0  0  0
    4.9430   11.2570   56.4000 C   0  0  0  0  0  0  0  0  0  0  0  0
    4.9400   11.7570   55.0640 C   0  0  0  0  0  0  0  0  0  0  0  0
    3.0080    6.8350   52.2790 C   0  0  0  0  0  0  0  0  0  0  0  0
    0.9280    1.1850   47.7900 C   0  0  0  0  0  0  0  0  0  0  0  0
    0.6700    0.7750   46.3700 C   0  0  0  0  0  0  0  0  0  0  0  0
    5.2030   11.5510   58.9500 C   0  0  0  0  0  0  0  0  0  0  0  0
    5.4450   13.4300   53.2320 C   0  0  0  0  0  0  0  0  0  0  0  0
    5.3270   12.1650   57.5520 C   0  0  0  0  0  0  0  0  0  0  0  0
    5.3000   13.1840   54.7390 C   0  0  0  0  0  0  0  0  0  0  0  0
    4.6200   10.0220   56.6560 N   0  0  0  0  0  0  0  0  0  0  0  0
    4.6080   11.0120   54.0610 N   0  0  0  0  0  0  0  0  0  0  0  0
    2.7730    5.4710   52.4010 N   0  0  0  0  0  0  0  0  0  0  0  0
    1.2970    2.4910   47.9330 N   0  0  0  0  0  0  0  0  0  0  0  0
    2.9410    7.3290   51.1670 O   0  0  0  0  0  0  0  0  0  0  0  0
    0.8000    0.4330   48.7370 O   0  0  0  0  0  0  0  0  0  0  0  0
  1  2  2  0
  1  8  1  0
  2  9  1  0
  3  5  2  0
  3 11  1  0
  4  6  1  0
  4 11  2  0
  5 12  1  0
  6 12  2  0
  7  8  2  0
  7 10  1  0
  8 15  1  0
  9 10  2  0
  9 22  1  0
 10 23  1  0
 11 24  1  0
 12 25  1  0
 13 14  1  0
 13 20  1  0
 13 22  2  0
 14 21  1  0
 14 23  2  0
 15 24  1  0
 15 26  2  0
 16 17  1  0
 16 25  1  0
 16 27  2  0
 18 20  1  0
 19 21  1  0
M  END
>  <washed_aromatic_smiles>  (529) 
CCc1c(nc2cc(ccc2n1)C(=O)Nc3ccc(cc3)NC(=O)C)CC

>  <name>  (529) 
neg208868

$$$$
neg116446
     RDKit          3D

 27 30  0  0  0  0  0  0  0  0999 V2000
    5.0590   11.2760   58.2190 C   0  0  0  0  0  0  0  0  0  0  0  0
    1.9370    0.0320   50.7210 C   0  0  0  0  0  0  0  0  0  0  0  0
    2.3370    0.0600   52.0700 C   0  0  0  0  0  0  0  0  0  0  0  0
    4.9030   12.1170   57.1250 C   0  0  0  0  0  0  0  0  0  0  0  0
    5.1170    9.9020   58.0290 C   0  0  0  0  0  0  0  0  0  0  0  0
    1.9650    1.1860   49.9660 C   0  0  0  0  0  0  0  0  0  0  0  0
    2.7200    1.2470   52.6570 C   0  0  0  0  0  0  0  0  0  0  0  0
    4.7630   11.5860   55.8480 C   0  0  0  0  0  0  0  0  0  0  0  0
    5.0180    9.3720   56.7460 C   0  0  0  0  0  0  0  0  0  0  0  0
    2.3940    2.3990   50.5410 C   0  0  0  0  0  0  0  0  0  0  0  0
    2.7080    2.4480   51.9110 C   0  0  0  0  0  0  0  0  0  0  0  0
    4.8150   10.2050   55.6410 C   0  0  0  0  0  0  0  0  0  0  0  0
    2.8350    4.6470   50.3860 C   0  0  0  0  0  0  0  0  0  0  0  0
    2.8130    4.7500   51.8010 C   0  0  0  0  0  0  0  0  0  0  0  0
    1.9070    7.1790   52.2110 C   0  0  0  0  0  0  0  0  0  0  0  0
    3.6700    6.2350   53.5460 C   0  0  0  0  0  0  0  0  0  0  0  0
    2.6320    8.5500   52.5070 C   0  0  0  0  0  0  0  0  0  0  0  0
    3.2590    7.3670   54.5030 C   0  0  0  0  0  0  0  0  0  0  0  0
    3.1380    5.6590   48.1560 C   0  0  0  0  0  0  0  0  0  0  0  0
    3.4080    5.7990   49.6130 C   0  0  0  0  0  0  0  0  0  0  0  0
    2.5810    3.5210   49.7780 N   0  0  0  0  0  0  0  0  0  0  0  0
    2.9010    3.6600   52.5220 N   0  0  0  0  0  0  0  0  0  0  0  0
    2.7780    6.0090   52.4510 N   0  0  0  0  0  0  0  0  0  0  0  0
    3.3350    8.6520   53.8310 N   0  0  0  0  0  0  0  0  0  0  0  0
    4.7100   10.6530   53.0650 O   0  0  0  0  0  0  0  0  0  0  0  0
    5.8890    8.6850   53.8370 O   0  0  0  0  0  0  0  0  0  0  0  0
    4.7600    9.5460   53.9610 S   0  0  0  0  0  0  0  0  0  0  0  0
  1  4  2  0
  1  5  1  0
  2  3  2  0
  2  6  1  0
  3  7  1  0
  4  8  1  0
  5  9  2  0
  6 10  2  0
  7 11  2  0
  8 12  2  0
  9 12  1  0
 10 11  1  0
 10 21  1  0
 11 22  1  0
 12 27  1  0
 13 14  1  0
 13 20  1  0
 13 21  2  0
 14 22  2  0
 14 23  1  0
 15 17  1  0
 15 23  1  0
 16 18  1  0
 16 23  1  0
 17 24  1  0
 18 24  1  0
 19 20  1  0
 24 27  1  0
 25 27  2  0
 26 27  2  0
M  END
>  <washed_aromatic_smiles>  (530) 
CCc1c(nc2ccccc2n1)N3CCN(CC3)S(=O)(=O)c4ccccc4

>  <name>  (530) 
neg116446

$$$$
neg118071
     RDKit          3D

 27 29  0  0  0  0  0  0  0  0999 V2000
    2.7450   -0.8550   52.8960 C   0  0  0  0  0  0  0  0  0  0  0  0
    2.4810    1.5080   52.8220 C   0  0  0  0  0  0  0  0  0  0  0  0
    3.1340   -0.7450   54.2150 C   0  0  0  0  0  0  0  0  0  0  0  0
    2.8040    1.6040   54.1650 C   0  0  0  0  0  0  0  0  0  0  0  0
    0.9080    0.7340   48.6880 C   0  0  0  0  0  0  0  0  0  0  0  0
    2.4390    0.2880   52.1500 C   0  0  0  0  0  0  0  0  0  0  0  0
    1.7240    1.1690   49.7560 C   0  0  0  0  0  0  0  0  0  0  0  0
    3.1820    0.4730   54.8530 C   0  0  0  0  0  0  0  0  0  0  0  0
    0.7190    1.6530   47.7190 C   0  0  0  0  0  0  0  0  0  0  0  0
    2.0810    2.5090   49.5440 C   0  0  0  0  0  0  0  0  0  0  0  0
    2.0740    0.1480   50.7400 C   0  0  0  0  0  0  0  0  0  0  0  0
    2.9920    4.7440   50.3000 C   0  0  0  0  0  0  0  0  0  0  0  0
    0.5110    8.5140   52.9010 C   0  0  0  0  0  0  0  0  0  0  0  0
    0.1290    7.0500   52.6380 C   0  0  0  0  0  0  0  0  0  0  0  0
    2.0070    8.6410   53.2410 C   0  0  0  0  0  0  0  0  0  0  0  0
    1.0610    6.3090   51.7140 C   0  0  0  0  0  0  0  0  0  0  0  0
    2.9110    7.7610   52.3680 C   0  0  0  0  0  0  0  0  0  0  0  0
    0.8410    0.6940   45.4210 C   0  0  0  0  0  0  0  0  0  0  0  0
    4.1590    1.6170   56.8860 C   0  0  0  0  0  0  0  0  0  0  0  0
   -0.0130    1.4100   46.4550 C   0  0  0  0  0  0  0  0  0  0  0  0
    3.3540    5.3800   51.6270 C   0  0  0  0  0  0  0  0  0  0  0  0
    2.4260    6.3500   52.2610 N   0  0  0  0  0  0  0  0  0  0  0  0
    2.8380    3.3710   50.3640 N   0  0  0  0  0  0  0  0  0  0  0  0
    2.0240   -1.0160   50.3440 O   0  0  0  0  0  0  0  0  0  0  0  0
    2.8300    5.3840   49.2830 O   0  0  0  0  0  0  0  0  0  0  0  0
    3.6580    0.4950   56.1360 O   0  0  0  0  0  0  0  0  0  0  0  0
    1.4760    3.1530   48.0630 S   0  0  0  0  0  0  0  0  0  0  0  0
  1  3  2  0
  1  6  1  0
  2  4  1  0
  2  6  2  0
  3  8  1  0
  4  8  2  0
  5  7  1  0
  5  9  2  0
  6 11  1  0
  7 10  2  0
  7 11  1  0
  8 26  1  0
  9 20  1  0
  9 27  1  0
 10 23  1  0
 10 27  1  0
 11 24  2  0
 12 21  1  0
 12 23  1  0
 12 25  2  0
 13 14  1  0
 13 15  1  0
 14 16  1  0
 15 17  1  0
 16 22  1  0
 17 22  1  0
 18 20  1  0
 19 26  1  0
 21 22  1  0
M  CHG  1  22   1
M  END
>  <washed_aromatic_smiles>  (531) 
CCc1cc(c(s1)NC(=O)CN2CCCCC2)C(=O)c3ccc(cc3)OC

>  <name>  (531) 
neg118071

$$$$
neg42864
     RDKit          3D

 25 26  0  0  0  0  0  0  0  0999 V2000
    1.9260    3.7370   48.5470 C   0  0  0  0  0  0  0  0  0  0  0  0
    1.9180    2.7350   50.7350 C   0  0  0  0  0  0  0  0  0  0  0  0
    2.4610    4.9050   49.0770 C   0  0  0  0  0  0  0  0  0  0  0  0
    2.4350    3.9070   51.2780 C   0  0  0  0  0  0  0  0  0  0  0  0
    1.6170    2.6530   49.3720 C   0  0  0  0  0  0  0  0  0  0  0  0
    2.6520    5.0100   50.4550 C   0  0  0  0  0  0  0  0  0  0  0  0
   -0.1500    8.5630   56.8410 C   0  0  0  0  0  0  0  0  0  0  0  0
    1.8030    9.0080   55.6130 C   0  0  0  0  0  0  0  0  0  0  0  0
    2.5500    6.8760   52.1220 C   0  0  0  0  0  0  0  0  0  0  0  0
    3.8870    8.3380   55.0190 C   0  0  0  0  0  0  0  0  0  0  0  0
    0.3180    0.4260   49.7180 C   0  0  0  0  0  0  0  0  0  0  0  0
    0.9430    1.4370   48.7510 C   0  0  0  0  0  0  0  0  0  0  0  0
    3.1450    8.2200   52.5150 C   0  0  0  0  0  0  0  0  0  0  0  0
    4.2810    8.1790   53.5950 C   0  0  0  0  0  0  0  0  0  0  0  0
   -1.1930    8.1610   57.8940 C   0  0  0  0  0  0  0  0  0  0  0  0
   -0.2390    8.3260   55.5640 N   0  0  0  0  0  0  0  0  0  0  0  0
    0.8750    8.5770   54.8280 N   0  0  0  0  0  0  0  0  0  0  0  0
    3.0680    6.2550   50.9990 N   0  0  0  0  0  0  0  0  0  0  0  0
    3.0570    9.3660   55.1990 N   0  0  0  0  0  0  0  0  0  0  0  0
    1.6380    6.3680   52.7420 O   0  0  0  0  0  0  0  0  0  0  0  0
    4.1490    7.5750   55.9300 O   0  0  0  0  0  0  0  0  0  0  0  0
   -1.5000    6.8870   57.8400 F   0  0  0  0  0  0  0  0  0  0  0  0
   -0.8120    8.4040   59.1320 F   0  0  0  0  0  0  0  0  0  0  0  0
   -2.3340    8.7340   57.7820 F   0  0  0  0  0  0  0  0  0  0  0  0
    1.4140    9.1210   57.2420 S   0  0  0  0  0  0  0  0  0  0  0  0
  1  3  2  0
  1  5  1  0
  2  4  1  0
  2  5  2  0
  3  6  1  0
  4  6  2  0
  5 12  1  0
  6 18  1  0
  7 15  1  0
  7 16  2  0
  7 25  1  0
  8 17  2  0
  8 19  1  0
  8 25  1  0
  9 13  1  0
  9 18  1  0
  9 20  2  0
 10 14  1  0
 10 19  1  0
 10 21  2  0
 11 12  1  0
 13 14  1  0
 15 22  1  0
 15 23  1  0
 15 24  1  0
 16 17  1  0
M  END
>  <washed_aromatic_smiles>  (532) 
CCc1ccc(cc1)NC(=O)CCC(=O)Nc2nnc(s2)C(F)(F)F

>  <name>  (532) 
neg42864

$$$$
neg165719
     RDKit          3D

 28 29  0  0  0  0  0  0  0  0999 V2000
    1.5560    3.8850   48.1740 C   0  0  0  0  0  0  0  0  0  0  0  0
    1.2500    1.9410   49.5450 C   0  0  0  0  0  0  0  0  0  0  0  0
    1.8050    4.6530   49.2930 C   0  0  0  0  0  0  0  0  0  0  0  0
    1.4670    2.7140   50.6780 C   0  0  0  0  0  0  0  0  0  0  0  0
    2.3410    9.0680   55.5550 C   0  0  0  0  0  0  0  0  0  0  0  0
    3.0090    8.5600   52.8790 C   0  0  0  0  0  0  0  0  0  0  0  0
    1.1970    2.5480   48.2880 C   0  0  0  0  0  0  0  0  0  0  0  0
    1.5540    4.1080   50.5380 C   0  0  0  0  0  0  0  0  0  0  0  0
    3.5440    9.5140   55.0260 C   0  0  0  0  0  0  0  0  0  0  0  0
    1.8340    8.0380   53.4280 C   0  0  0  0  0  0  0  0  0  0  0  0
    3.8800    9.2660   53.6930 C   0  0  0  0  0  0  0  0  0  0  0  0
    1.4340    8.4210   54.7250 C   0  0  0  0  0  0  0  0  0  0  0  0
    3.9610   11.4270   56.4700 C   0  0  0  0  0  0  0  0  0  0  0  0
    1.8810    5.9160   52.2090 C   0  0  0  0  0  0  0  0  0  0  0  0
    0.6270    0.3470   47.1050 C   0  0  0  0  0  0  0  0  0  0  0  0
    6.1970   12.4130   56.0210 C   0  0  0  0  0  0  0  0  0  0  0  0
    4.2070   13.4950   55.0790 C   0  0  0  0  0  0  0  0  0  0  0  0
    6.3370    9.2910   53.7180 C   0  0  0  0  0  0  0  0  0  0  0  0
   -0.3700    8.5310   56.5900 C   0  0  0  0  0  0  0  0  0  0  0  0
    0.7040    1.8560   47.0390 C   0  0  0  0  0  0  0  0  0  0  0  0
    4.7430   12.7000   56.2540 C   0  0  0  0  0  0  0  0  0  0  0  0
    4.3930   10.3520   55.7590 N   0  0  0  0  0  0  0  0  0  0  0  0
    1.0910    5.0130   51.5240 N   0  0  0  0  0  0  0  0  0  0  0  0
    1.1560    7.0280   52.6960 N   0  0  0  0  0  0  0  0  0  0  0  0
    2.9580   11.3680   57.1370 O   0  0  0  0  0  0  0  0  0  0  0  0
    5.0710    9.7310   53.1660 O   0  0  0  0  0  0  0  0  0  0  0  0
    0.1360    8.2010   55.2020 O   0  0  0  0  0  0  0  0  0  0  0  0
    3.5040    5.6200   52.5000 S   0  0  0  0  0  0  0  0  0  0  0  0
  1  3  2  0
  1  7  1  0
  2  4  1  0
  2  7  2  0
  3  8  1  0
  4  8  2  0
  5  9  2  0
  5 12  1  0
  6 10  1  0
  6 11  2  0
  7 20  1  0
  8 23  1  0
  9 11  1  0
  9 22  1  0
 10 12  2  0
 10 24  1  0
 11 26  1  0
 12 27  1  0
 13 21  1  0
 13 22  1  0
 13 25  2  0
 14 23  1  0
 14 24  1  0
 14 28  2  0
 15 20  1  0
 16 21  1  0
 17 21  1  0
 18 26  1  0
 19 27  1  0
M  END
>  <washed_aromatic_smiles>  (533) 
CCc1ccc(cc1)NC(=S)Nc2cc(c(cc2OC)NC(=O)C(C)C)OC

>  <name>  (533) 
neg165719

$$$$
neg195945
     RDKit          3D

 26 28  0  0  0  0  0  0  0  0999 V2000
    1.2080    4.4980   51.0230 C   0  0  0  0  0  0  0  0  0  0  0  0
    2.9580    4.6220   49.4030 C   0  0  0  0  0  0  0  0  0  0  0  0
    4.7340    9.9500   57.3000 C   0  0  0  0  0  0  0  0  0  0  0  0
    5.4890   12.0380   56.3560 C   0  0  0  0  0  0  0  0  0  0  0  0
    1.5760    5.6970   51.5790 C   0  0  0  0  0  0  0  0  0  0  0  0
    3.3480    5.8480   49.9480 C   0  0  0  0  0  0  0  0  0  0  0  0
    4.4730    9.4590   56.0260 C   0  0  0  0  0  0  0  0  0  0  0  0
    5.2330   11.5540   55.0760 C   0  0  0  0  0  0  0  0  0  0  0  0
    5.2360   11.2410   57.4800 C   0  0  0  0  0  0  0  0  0  0  0  0
    1.8770    3.9220   49.9460 C   0  0  0  0  0  0  0  0  0  0  0  0
    2.6550    6.3700   51.0480 C   0  0  0  0  0  0  0  0  0  0  0  0
    4.7120   10.2730   54.9200 C   0  0  0  0  0  0  0  0  0  0  0  0
    3.0610    7.8560   52.9780 C   0  0  0  0  0  0  0  0  0  0  0  0
    2.1480   -0.5780   52.3560 C   0  0  0  0  0  0  0  0  0  0  0  0
    2.3560   -0.8340   50.8360 C   0  0  0  0  0  0  0  0  0  0  0  0
    1.4840    0.7640   52.7270 C   0  0  0  0  0  0  0  0  0  0  0  0
    1.5020    0.0390   49.8940 C   0  0  0  0  0  0  0  0  0  0  0  0
    0.6600    1.3420   51.5680 C   0  0  0  0  0  0  0  0  0  0  0  0
    6.1210   13.0830   59.1240 C   0  0  0  0  0  0  0  0  0  0  0  0
    5.4610   11.7100   58.9100 C   0  0  0  0  0  0  0  0  0  0  0  0
    1.4220    2.5660   49.3990 C   0  0  0  0  0  0  0  0  0  0  0  0
    3.0780    9.3030   53.3950 C   0  0  0  0  0  0  0  0  0  0  0  0
    1.5240    1.4130   50.3820 N   0  0  0  0  0  0  0  0  0  0  0  0
    2.9550    7.6140   51.6290 N   0  0  0  0  0  0  0  0  0  0  0  0
    3.1130    6.9420   53.7840 O   0  0  0  0  0  0  0  0  0  0  0  0
    4.4100    9.8300   53.6540 O   0  0  0  0  0  0  0  0  0  0  0  0
  1  5  2  0
  1 10  1  0
  2  6  1  0
  2 10  2  0
  3  7  2  0
  3  9  1  0
  4  8  1  0
  4  9  2  0
  5 11  1  0
  6 11  2  0
  7 12  1  0
  8 12  2  0
  9 20  1  0
 10 21  1  0
 11 24  1  0
 12 26  1  0
 13 22  1  0
 13 24  1  0
 13 25  2  0
 14 15  1  0
 14 16  1  0
 15 17  1  0
 16 18  1  0
 17 23  1  0
 18 23  1  0
 19 20  1  0
 21 23  1  0
 22 26  1  0
M  CHG  1  23   1
M  END
>  <washed_aromatic_smiles>  (534) 
CCc1ccc(cc1)OCC(=O)Nc2ccc(cc2)CN3CCCCC3

>  <name>  (534) 
neg195945

$$$$
neg95279
     RDKit          3D

 27 30  0  0  0  0  0  0  0  0999 V2000
    5.3690    9.5410   58.2760 C   0  0  0  0  0  0  0  0  0  0  0  0
    4.2200   10.2790   58.0130 C   0  0  0  0  0  0  0  0  0  0  0  0
    5.8780    8.6840   57.3060 C   0  0  0  0  0  0  0  0  0  0  0  0
    1.0740    1.1260   51.5470 C   0  0  0  0  0  0  0  0  0  0  0  0
    3.1960    1.2560   52.7170 C   0  0  0  0  0  0  0  0  0  0  0  0
    3.5580   10.1440   56.7980 C   0  0  0  0  0  0  0  0  0  0  0  0
    5.2430    8.5640   56.0750 C   0  0  0  0  0  0  0  0  0  0  0  0
    0.6480    0.1570   52.4230 C   0  0  0  0  0  0  0  0  0  0  0  0
    2.7780    0.2810   53.6030 C   0  0  0  0  0  0  0  0  0  0  0  0
    2.7770    4.2500   51.7760 C   0  0  0  0  0  0  0  0  0  0  0  0
    2.2970    1.7590   51.7750 C   0  0  0  0  0  0  0  0  0  0  0  0
    2.6990    5.2440   50.8000 C   0  0  0  0  0  0  0  0  0  0  0  0
    4.0680    9.2810   55.8230 C   0  0  0  0  0  0  0  0  0  0  0  0
    1.4850   -0.1950   53.4700 C   0  0  0  0  0  0  0  0  0  0  0  0
    2.4950    3.0480   51.1970 C   0  0  0  0  0  0  0  0  0  0  0  0
    2.3880    4.5800   49.6290 C   0  0  0  0  0  0  0  0  0  0  0  0
    2.9770    6.6740   50.9200 C   0  0  0  0  0  0  0  0  0  0  0  0
    2.4810    7.9350   54.5960 C   0  0  0  0  0  0  0  0  0  0  0  0
    4.1210    9.2530   53.3800 C   0  0  0  0  0  0  0  0  0  0  0  0
    2.6050    6.9110   53.4320 C   0  0  0  0  0  0  0  0  0  0  0  0
    3.2840    8.8550   52.1600 C   0  0  0  0  0  0  0  0  0  0  0  0
    2.1920    4.9610   48.2080 C   0  0  0  0  0  0  0  0  0  0  0  0
    2.2630    3.2740   49.8900 N   0  0  0  0  0  0  0  0  0  0  0  0
    3.3600    9.1180   54.6130 N   0  0  0  0  0  0  0  0  0  0  0  0
    2.8630    7.4450   52.1100 N   0  0  0  0  0  0  0  0  0  0  0  0
    3.3930    7.2590   49.9270 O   0  0  0  0  0  0  0  0  0  0  0  0
    1.0130   -0.9590   54.4140 F   0  0  0  0  0  0  0  0  0  0  0  0
  1  2  2  0
  1  3  1  0
  2  6  1  0
  3  7  2  0
  4  8  2  0
  4 11  1  0
  5  9  1  0
  5 11  2  0
  6 13  2  0
  7 13  1  0
  8 14  1  0
  9 14  2  0
 10 12  1  0
 10 15  2  0
 11 15  1  0
 12 16  2  0
 12 17  1  0
 13 24  1  0
 14 27  1  0
 15 23  1  0
 16 22  1  0
 16 23  1  0
 17 25  1  0
 17 26  2  0
 18 20  1  0
 18 24  1  0
 19 21  1  0
 19 24  1  0
 20 25  1  0
 21 25  1  0
M  END
>  <washed_aromatic_smiles>  (535) 
Cc1c(cc([nH]1)c2ccc(cc2)F)C(=O)N3CCN(CC3)c4ccccc4

>  <name>  (535) 
neg95279

$$$$
neg206140
     RDKit          3D

 32 34  0  0  0  0  0  0  0  0999 V2000
    1.1620    0.7160   49.0170 C   0  0  0  0  0  0  0  0  0  0  0  0
    1.0420    0.5420   51.4410 C   0  0  0  0  0  0  0  0  0  0  0  0
    3.8610    9.9010   57.6350 C   0  0  0  0  0  0  0  0  0  0  0  0
    5.0170   10.6980   55.6640 C   0  0  0  0  0  0  0  0  0  0  0  0
   -0.1830    0.4040   48.9270 C   0  0  0  0  0  0  0  0  0  0  0  0
   -0.3030    0.3110   51.3470 C   0  0  0  0  0  0  0  0  0  0  0  0
    4.3810   10.9500   58.3670 C   0  0  0  0  0  0  0  0  0  0  0  0
    5.5310   11.7670   56.4010 C   0  0  0  0  0  0  0  0  0  0  0  0
    3.2090    5.0850   52.5590 C   0  0  0  0  0  0  0  0  0  0  0  0
    1.7550    0.7890   50.2770 C   0  0  0  0  0  0  0  0  0  0  0  0
    4.2070    9.7470   56.3060 C   0  0  0  0  0  0  0  0  0  0  0  0
    2.9900    4.7900   51.2230 C   0  0  0  0  0  0  0  0  0  0  0  0
    3.1040    6.4040   52.9920 C   0  0  0  0  0  0  0  0  0  0  0  0
   -0.9200    0.2550   50.1060 C   0  0  0  0  0  0  0  0  0  0  0  0
    5.2360   11.8610   57.7660 C   0  0  0  0  0  0  0  0  0  0  0  0
    2.9520    5.8280   50.3090 C   0  0  0  0  0  0  0  0  0  0  0  0
    2.6950    7.3870   52.1110 C   0  0  0  0  0  0  0  0  0  0  0  0
    3.1970    2.2580   51.2960 C   0  0  0  0  0  0  0  0  0  0  0  0
    4.1270    7.9020   54.6360 C   0  0  0  0  0  0  0  0  0  0  0  0
    3.1150    5.6420   48.8130 C   0  0  0  0  0  0  0  0  0  0  0  0
    2.1570    8.7460   52.5610 C   0  0  0  0  0  0  0  0  0  0  0  0
   -3.0550   -0.6370   49.0920 C   0  0  0  0  0  0  0  0  0  0  0  0
    6.2770   14.0920   58.2030 C   0  0  0  0  0  0  0  0  0  0  0  0
    2.7640    7.0710   50.7990 N   0  0  0  0  0  0  0  0  0  0  0  0
    3.0660    1.1980   50.4520 N   0  0  0  0  0  0  0  0  0  0  0  0
    3.6650    8.5800   55.7260 N   0  0  0  0  0  0  0  0  0  0  0  0
    2.8320    3.4670   50.7210 N   0  0  0  0  0  0  0  0  0  0  0  0
    3.3510    6.7940   54.3250 N   0  0  0  0  0  0  0  0  0  0  0  0
    3.5730    2.0810   52.4460 O   0  0  0  0  0  0  0  0  0  0  0  0
    5.0990    8.2610   53.9800 O   0  0  0  0  0  0  0  0  0  0  0  0
   -2.2770   -0.0130   50.1210 O   0  0  0  0  0  0  0  0  0  0  0  0
    5.7630   12.8210   58.6050 O   0  0  0  0  0  0  0  0  0  0  0  0
  1  5  2  0
  1 10  1  0
  2  6  1  0
  2 10  2  0
  3  7  2  0
  3 11  1  0
  4  8  1  0
  4 11  2  0
  5 14  1  0
  6 14  2  0
  7 15  1  0
  8 15  2  0
  9 12  2  0
  9 13  1  0
 10 25  1  0
 11 26  1  0
 12 16  1  0
 12 27  1  0
 13 17  2  0
 13 28  1  0
 14 31  1  0
 15 32  1  0
 16 20  1  0
 16 24  2  0
 17 21  1  0
 17 24  1  0
 18 25  1  0
 18 27  1  0
 18 29  2  0
 19 26  1  0
 19 28  1  0
 19 30  2  0
 22 31  1  0
 23 32  1  0
M  CHG  1  24   1
M  END
>  <washed_aromatic_smiles>  (536) 
Cc1c(cc(c(n1)C)NC(=O)Nc2ccc(cc2)OC)NC(=O)Nc3ccc(cc3)OC

>  <name>  (536) 
neg206140

$$$$
neg116132
     RDKit          3D

 25 27  0  0  0  0  0  0  0  0999 V2000
    2.5760    2.6900   51.4590 C   0  0  0  0  0  0  0  0  0  0  0  0
    1.7330    4.2380   49.7870 C   0  0  0  0  0  0  0  0  0  0  0  0
    2.2470    1.6210   50.6340 C   0  0  0  0  0  0  0  0  0  0  0  0
    1.4350    3.1700   48.9500 C   0  0  0  0  0  0  0  0  0  0  0  0
    3.9560    7.7770   53.4810 C   0  0  0  0  0  0  0  0  0  0  0  0
    2.8000    7.3680   52.8010 C   0  0  0  0  0  0  0  0  0  0  0  0
    2.2850    3.9980   51.0540 C   0  0  0  0  0  0  0  0  0  0  0  0
    1.6470    1.8680   49.3960 C   0  0  0  0  0  0  0  0  0  0  0  0
    1.8740    8.3300   53.0610 C   0  0  0  0  0  0  0  0  0  0  0  0
    3.7760    9.0450   53.8890 C   0  0  0  0  0  0  0  0  0  0  0  0
    2.7610    6.3730   51.7340 C   0  0  0  0  0  0  0  0  0  0  0  0
    3.1430    9.1240   57.0630 C   0  0  0  0  0  0  0  0  0  0  0  0
    4.2770    8.1070   57.1540 C   0  0  0  0  0  0  0  0  0  0  0  0
    3.8480   10.4530   56.8280 C   0  0  0  0  0  0  0  0  0  0  0  0
    5.5180    8.8650   56.6930 C   0  0  0  0  0  0  0  0  0  0  0  0
    0.4080    8.4280   52.7310 C   0  0  0  0  0  0  0  0  0  0  0  0
    0.6680   -0.3690   49.1650 C   0  0  0  0  0  0  0  0  0  0  0  0
    5.0550   10.1100   56.0950 N   0  0  0  0  0  0  0  0  0  0  0  0
    2.5110    5.0450   52.0070 N   0  0  0  0  0  0  0  0  0  0  0  0
    3.0170    6.6760   50.5770 O   0  0  0  0  0  0  0  0  0  0  0  0
    6.2900    9.7790   53.9150 O   0  0  0  0  0  0  0  0  0  0  0  0
    4.6430   11.5360   54.0490 O   0  0  0  0  0  0  0  0  0  0  0  0
    2.4740    9.3610   53.6870 O   0  0  0  0  0  0  0  0  0  0  0  0
    1.2080    0.8400   48.5900 O   0  0  0  0  0  0  0  0  0  0  0  0
    5.0390   10.2230   54.4310 S   0  0  0  0  0  0  0  0  0  0  0  0
  1  3  2  0
  1  7  1  0
  2  4  1  0
  2  7  2  0
  3  8  1  0
  4  8  2  0
  5  6  1  0
  5 10  2  0
  6  9  2  0
  6 11  1  0
  7 19  1  0
  8 24  1  0
  9 16  1  0
  9 23  1  0
 10 23  1  0
 10 25  1  0
 11 19  1  0
 11 20  2  0
 12 13  1  0
 12 14  1  0
 13 15  1  0
 14 18  1  0
 15 18  1  0
 17 24  1  0
 18 25  1  0
 21 25  2  0
 22 25  2  0
M  END
>  <washed_aromatic_smiles>  (537) 
Cc1c(cc(o1)S(=O)(=O)N2CCCC2)C(=O)Nc3ccc(cc3)OC

>  <name>  (537) 
neg116132

$$$$
neg222538
     RDKit          3D

 31 34  0  0  0  0  0  0  0  0999 V2000
   -0.0930    0.7340   47.5790 C   0  0  0  0  0  0  0  0  0  0  0  0
    5.6250   12.2140   58.8890 C   0  0  0  0  0  0  0  0  0  0  0  0
    5.7770   13.2700   57.9820 C   0  0  0  0  0  0  0  0  0  0  0  0
    0.3270    2.0390   47.4060 C   0  0  0  0  0  0  0  0  0  0  0  0
    0.3390   -0.0080   48.6680 C   0  0  0  0  0  0  0  0  0  0  0  0
   -0.0820    7.0320   52.0530 C   0  0  0  0  0  0  0  0  0  0  0  0
    5.2120   10.9550   58.4510 C   0  0  0  0  0  0  0  0  0  0  0  0
    5.5020   13.0760   56.6310 C   0  0  0  0  0  0  0  0  0  0  0  0
    0.4490    7.9610   52.9370 C   0  0  0  0  0  0  0  0  0  0  0  0
    1.1610    2.6270   48.3410 C   0  0  0  0  0  0  0  0  0  0  0  0
    1.1710    0.5790   49.6120 C   0  0  0  0  0  0  0  0  0  0  0  0
    0.6970    6.0380   51.4930 C   0  0  0  0  0  0  0  0  0  0  0  0
    4.9640   10.7700   57.0930 C   0  0  0  0  0  0  0  0  0  0  0  0
    5.1180   11.8160   56.2000 C   0  0  0  0  0  0  0  0  0  0  0  0
    1.7780    7.8470   53.3330 C   0  0  0  0  0  0  0  0  0  0  0  0
    1.5820    1.9040   49.4620 C   0  0  0  0  0  0  0  0  0  0  0  0
    2.5220    6.7600   52.8700 C   0  0  0  0  0  0  0  0  0  0  0  0
    1.9680    5.8470   51.9830 C   0  0  0  0  0  0  0  0  0  0  0  0
    4.5040    9.6210   56.3510 C   0  0  0  0  0  0  0  0  0  0  0  0
    4.7730   11.3570   54.8810 C   0  0  0  0  0  0  0  0  0  0  0  0
    2.3310    8.7640   54.3190 C   0  0  0  0  0  0  0  0  0  0  0  0
    2.6870    3.9950   50.5370 C   0  0  0  0  0  0  0  0  0  0  0  0
    3.8160    6.4570   53.5110 C   0  0  0  0  0  0  0  0  0  0  0  0
    2.4570    2.4920   50.5500 C   0  0  0  0  0  0  0  0  0  0  0  0
    4.3050   10.0650   55.0410 N   0  0  0  0  0  0  0  0  0  0  0  0
    2.5540    4.5880   51.7520 N   0  0  0  0  0  0  0  0  0  0  0  0
    3.5070    9.4050   54.0180 N   0  0  0  0  0  0  0  0  0  0  0  0
    4.3330    8.4660   56.7360 O   0  0  0  0  0  0  0  0  0  0  0  0
    4.8370   11.9490   53.8060 O   0  0  0  0  0  0  0  0  0  0  0  0
    1.8080    8.9390   55.4170 O   0  0  0  0  0  0  0  0  0  0  0  0
    2.9950    4.6650   49.5690 O   0  0  0  0  0  0  0  0  0  0  0  0
  1  4  2  0
  1  5  1  0
  2  3  2  0
  2  7  1  0
  3  8  1  0
  4 10  1  0
  5 11  2  0
  6  9  2  0
  6 12  1  0
  7 13  2  0
  8 14  2  0
  9 15  1  0
 10 16  2  0
 11 16  1  0
 12 18  2  0
 13 14  1  0
 13 19  1  0
 14 20  1  0
 15 17  2  0
 15 21  1  0
 16 24  1  0
 17 18  1  0
 17 23  1  0
 18 26  1  0
 19 25  1  0
 19 28  2  0
 20 25  1  0
 20 29  2  0
 21 27  1  0
 21 30  2  0
 22 24  1  0
 22 26  1  0
 22 31  2  0
 25 27  1  0
M  END
>  <washed_aromatic_smiles>  (538) 
Cc1c(cccc1NC(=O)Cc2ccccc2)C(=O)NN3C(=O)c4ccccc4C3=O

>  <name>  (538) 
neg222538

$$$$
neg105567
     RDKit          3D

 26 28  0  0  0  0  0  0  0  0999 V2000
    1.0870    2.5490   48.0760 C   0  0  0  0  0  0  0  0  0  0  0  0
    1.3620    3.9130   48.1610 C   0  0  0  0  0  0  0  0  0  0  0  0
    1.3070    1.7270   49.1790 C   0  0  0  0  0  0  0  0  0  0  0  0
    4.5240    9.1710   57.8760 C   0  0  0  0  0  0  0  0  0  0  0  0
    4.1430    9.0440   56.5510 C   0  0  0  0  0  0  0  0  0  0  0  0
    1.8510    4.4630   49.3360 C   0  0  0  0  0  0  0  0  0  0  0  0
    1.7900    2.2680   50.3650 C   0  0  0  0  0  0  0  0  0  0  0  0
    1.4330    6.3670   51.9520 C   0  0  0  0  0  0  0  0  0  0  0  0
    3.6210    5.8750   52.8640 C   0  0  0  0  0  0  0  0  0  0  0  0
    1.4730    7.6260   52.5600 C   0  0  0  0  0  0  0  0  0  0  0  0
    3.6680    7.1190   53.4490 C   0  0  0  0  0  0  0  0  0  0  0  0
    5.0150   10.3780   58.3410 C   0  0  0  0  0  0  0  0  0  0  0  0
    4.2690   10.1110   55.6460 C   0  0  0  0  0  0  0  0  0  0  0  0
    4.7620   11.3600   56.1000 C   0  0  0  0  0  0  0  0  0  0  0  0
    2.0480    3.6400   50.4420 C   0  0  0  0  0  0  0  0  0  0  0  0
    2.5140    5.4870   52.1170 C   0  0  0  0  0  0  0  0  0  0  0  0
    2.6030    7.9950   53.3020 C   0  0  0  0  0  0  0  0  0  0  0  0
    5.1300   11.4630   57.4630 C   0  0  0  0  0  0  0  0  0  0  0  0
    3.9370    9.8180   54.2510 C   0  0  0  0  0  0  0  0  0  0  0  0
    4.8940   12.5320   55.1240 C   0  0  0  0  0  0  0  0  0  0  0  0
    2.5410    4.1540   51.6470 N   0  0  0  0  0  0  0  0  0  0  0  0
    2.7050    9.2320   53.9810 N   0  0  0  0  0  0  0  0  0  0  0  0
    5.6860   12.6940   58.0650 N   0  0  0  0  0  0  0  0  0  0  0  0
    6.1510   12.6700   59.1950 O   0  0  0  0  0  0  0  0  0  0  0  0
    4.7330    9.9670   53.3280 O   0  0  0  0  0  0  0  0  0  0  0  0
    5.7210   13.7560   57.4740 O   0  0  0  0  0  0  0  0  0  0  0  0
  1  2  2  0
  1  3  1  0
  2  6  1  0
  3  7  2  0
  4  5  2  0
  4 12  1  0
  5 13  1  0
  6 15  2  0
  7 15  1  0
  8 10  2  0
  8 16  1  0
  9 11  1  0
  9 16  2  0
 10 17  1  0
 11 17  2  0
 12 18  2  0
 13 14  2  0
 13 19  1  0
 14 18  1  0
 14 20  1  0
 15 21  1  0
 16 21  1  0
 17 22  1  0
 18 23  1  0
 19 22  1  0
 19 25  2  0
 23 24  1  0
 23 26  2  0
M  CHG  2  23   1  24  -1
M  END
>  <washed_aromatic_smiles>  (539) 
Cc1c(cccc1[N+](=O)[O-])C(=O)Nc2ccc(cc2)Nc3ccccc3

>  <name>  (539) 
neg105567

$$$$
neg73251
     RDKit          3D

 26 29  0  0  0  0  0  0  0  0999 V2000
    0.2490   -0.5280   48.6820 C   0  0  0  0  0  0  0  0  0  0  0  0
    0.1210    0.5910   47.8710 C   0  0  0  0  0  0  0  0  0  0  0  0
    1.1250   -0.5190   49.7600 C   0  0  0  0  0  0  0  0  0  0  0  0
    1.7000    7.4770   53.0830 C   0  0  0  0  0  0  0  0  0  0  0  0
    1.7130    8.1030   54.3200 C   0  0  0  0  0  0  0  0  0  0  0  0
    0.8420    1.7380   48.1530 C   0  0  0  0  0  0  0  0  0  0  0  0
    1.8370    0.6250   50.0680 C   0  0  0  0  0  0  0  0  0  0  0  0
    3.5580    8.8420   52.3840 C   0  0  0  0  0  0  0  0  0  0  0  0
    3.6610    9.3920   53.6530 C   0  0  0  0  0  0  0  0  0  0  0  0
    2.7080    7.7640   52.1220 C   0  0  0  0  0  0  0  0  0  0  0  0
    4.5780   10.3010   54.2280 C   0  0  0  0  0  0  0  0  0  0  0  0
    2.7760    8.9740   54.6250 C   0  0  0  0  0  0  0  0  0  0  0  0
    1.6870    1.7680   49.2760 C   0  0  0  0  0  0  0  0  0  0  0  0
    4.2890   10.3900   55.5530 C   0  0  0  0  0  0  0  0  0  0  0  0
    2.9210    7.0480   50.8450 C   0  0  0  0  0  0  0  0  0  0  0  0
    2.0420    3.3210   51.0390 C   0  0  0  0  0  0  0  0  0  0  0  0
    2.3220    4.0470   48.7340 C   0  0  0  0  0  0  0  0  0  0  0  0
    2.4520    4.7150   51.5590 C   0  0  0  0  0  0  0  0  0  0  0  0
    3.1390    5.2140   49.2310 C   0  0  0  0  0  0  0  0  0  0  0  0
    5.6980   10.9910   53.4810 C   0  0  0  0  0  0  0  0  0  0  0  0
    4.9740   11.1910   56.6430 C   0  0  0  0  0  0  0  0  0  0  0  0
    2.7140    9.2180   57.1060 C   0  0  0  0  0  0  0  0  0  0  0  0
    3.1930    9.5720   55.8010 N   0  0  0  0  0  0  0  0  0  0  0  0
    2.3840    2.9280   49.6610 N   0  0  0  0  0  0  0  0  0  0  0  0
    2.6580    5.7260   50.5420 N   0  0  0  0  0  0  0  0  0  0  0  0
    3.4490    7.6460   49.9230 O   0  0  0  0  0  0  0  0  0  0  0  0
  1  2  2  0
  1  3  1  0
  2  6  1  0
  3  7  2  0
  4  5  2  0
  4 10  1  0
  5 12  1  0
  6 13  2  0
  7 13  1  0
  8  9  1  0
  8 10  2  0
  9 11  1  0
  9 12  2  0
 10 15  1  0
 11 14  2  0
 11 20  1  0
 12 23  1  0
 13 24  1  0
 14 21  1  0
 14 23  1  0
 15 25  1  0
 15 26  2  0
 16 18  1  0
 16 24  1  0
 17 19  1  0
 17 24  1  0
 18 25  1  0
 19 25  1  0
 22 23  1  0
M  END
>  <washed_aromatic_smiles>  (540) 
Cc1c(n(c2c1cc(cc2)C(=O)N3CCN(CC3)c4ccccc4)C)C

>  <name>  (540) 
neg73251

$$$$
neg68183
     RDKit          3D

 27 30  0  0  0  0  0  0  0  0999 V2000
    2.1480    8.9460   54.7620 C   0  0  0  0  0  0  0  0  0  0  0  0
    1.1620    8.0670   54.3350 C   0  0  0  0  0  0  0  0  0  0  0  0
    3.1870    9.2860   53.9040 C   0  0  0  0  0  0  0  0  0  0  0  0
    1.2810    7.4300   53.1090 C   0  0  0  0  0  0  0  0  0  0  0  0
    3.2680    8.7030   52.6490 C   0  0  0  0  0  0  0  0  0  0  0  0
    1.9540   -0.6160   51.0750 C   0  0  0  0  0  0  0  0  0  0  0  0
    2.3190   -1.2680   52.2310 C   0  0  0  0  0  0  0  0  0  0  0  0
    2.2830    1.4680   52.1860 C   0  0  0  0  0  0  0  0  0  0  0  0
    2.3810    7.6850   52.2750 C   0  0  0  0  0  0  0  0  0  0  0  0
    1.9500    0.7980   50.9950 C   0  0  0  0  0  0  0  0  0  0  0  0
    2.7020   -0.5680   53.3890 C   0  0  0  0  0  0  0  0  0  0  0  0
    2.5710    0.8130   53.3860 C   0  0  0  0  0  0  0  0  0  0  0  0
    3.7430   -0.4330   55.4470 C   0  0  0  0  0  0  0  0  0  0  0  0
    3.4100    0.9450   55.5100 C   0  0  0  0  0  0  0  0  0  0  0  0
    2.6260    6.8280   51.1190 C   0  0  0  0  0  0  0  0  0  0  0  0
    2.5540    5.0210   50.1300 C   0  0  0  0  0  0  0  0  0  0  0  0
    1.5940    1.3940   49.6560 C   0  0  0  0  0  0  0  0  0  0  0  0
    4.6970   -1.0520   56.4730 C   0  0  0  0  0  0  0  0  0  0  0  0
    3.7980    1.7960   56.6940 C   0  0  0  0  0  0  0  0  0  0  0  0
    2.2690    3.5680   50.2310 C   0  0  0  0  0  0  0  0  0  0  0  0
    3.3270   -1.1630   54.4480 N   0  0  0  0  0  0  0  0  0  0  0  0
    2.8200    1.5350   54.5180 N   0  0  0  0  0  0  0  0  0  0  0  0
    3.3440    6.9500   50.0450 N   0  0  0  0  0  0  0  0  0  0  0  0
    3.3110    5.7400   49.3990 N   0  0  0  0  0  0  0  0  0  0  0  0
    1.0470    0.7240   48.7980 O   0  0  0  0  0  0  0  0  0  0  0  0
    2.1010    5.6560   51.1570 O   0  0  0  0  0  0  0  0  0  0  0  0
    1.8430    2.6900   49.2300 O   0  0  0  0  0  0  0  0  0  0  0  0
  1  2  2  0
  1  3  1  0
  2  4  1  0
  3  5  2  0
  4  9  2  0
  5  9  1  0
  6  7  2  0
  6 10  1  0
  7 11  1  0
  8 10  2  0
  8 12  1  0
  9 15  1  0
 10 17  1  0
 11 12  2  0
 11 21  1  0
 12 22  1  0
 13 14  1  0
 13 18  1  0
 13 21  2  0
 14 19  1  0
 14 22  2  0
 15 23  2  0
 15 26  1  0
 16 20  1  0
 16 24  2  0
 16 26  1  0
 17 25  2  0
 17 27  1  0
 20 27  1  0
 23 24  1  0
M  END
>  <washed_aromatic_smiles>  (541) 
Cc1c(nc2cc(ccc2n1)C(=O)OCc3nnc(o3)c4ccccc4)C

>  <name>  (541) 
neg68183

$$$$
neg221786
     RDKit          3D

 25 27  0  0  0  0  0  0  0  0999 V2000
    0.2600    7.2280   52.5940 C   0  0  0  0  0  0  0  0  0  0  0  0
    1.0490    6.8180   51.5620 C   0  0  0  0  0  0  0  0  0  0  0  0
    2.5660    2.5220   49.0980 C   0  0  0  0  0  0  0  0  0  0  0  0
    1.1830    3.0260   50.9500 C   0  0  0  0  0  0  0  0  0  0  0  0
    1.7880    1.3810   48.9050 C   0  0  0  0  0  0  0  0  0  0  0  0
    0.5900    1.7810   50.9400 C   0  0  0  0  0  0  0  0  0  0  0  0
    2.9200    8.0880   52.4700 C   0  0  0  0  0  0  0  0  0  0  0  0
    0.8230    7.9700   53.6550 C   0  0  0  0  0  0  0  0  0  0  0  0
    2.1710    8.3640   53.6060 C   0  0  0  0  0  0  0  0  0  0  0  0
    2.2840    3.3270   50.2000 C   0  0  0  0  0  0  0  0  0  0  0  0
    2.3940    7.2440   51.5170 C   0  0  0  0  0  0  0  0  0  0  0  0
    0.8750    0.9720   49.8710 C   0  0  0  0  0  0  0  0  0  0  0  0
    0.6970    8.7040   55.7990 C   0  0  0  0  0  0  0  0  0  0  0  0
    2.0860    9.0790   55.7560 C   0  0  0  0  0  0  0  0  0  0  0  0
    3.1610    5.5740   49.8810 C   0  0  0  0  0  0  0  0  0  0  0  0
   -0.1780    8.7800   57.0440 C   0  0  0  0  0  0  0  0  0  0  0  0
    2.8290    9.7010   56.9130 C   0  0  0  0  0  0  0  0  0  0  0  0
    3.0210    4.5780   52.1780 C   0  0  0  0  0  0  0  0  0  0  0  0
   -0.2160   -0.5360   48.4390 C   0  0  0  0  0  0  0  0  0  0  0  0
    0.1040    8.2150   54.7670 N   0  0  0  0  0  0  0  0  0  0  0  0
    2.7830    8.9330   54.6800 N   0  0  0  0  0  0  0  0  0  0  0  0
    3.1910    6.8300   50.4620 N   0  0  0  0  0  0  0  0  0  0  0  0
    2.9690    4.4620   50.6960 N   0  0  0  0  0  0  0  0  0  0  0  0
    0.1370   -0.1540   49.7520 O   0  0  0  0  0  0  0  0  0  0  0  0
    3.3710    5.4350   48.2500 S   0  0  0  0  0  0  0  0  0  0  0  0
  1  2  2  0
  1  8  1  0
  2 11  1  0
  3  5  2  0
  3 10  1  0
  4  6  1  0
  4 10  2  0
  5 12  1  0
  6 12  2  0
  7  9  1  0
  7 11  2  0
  8  9  2  0
  8 20  1  0
  9 21  1  0
 10 23  1  0
 11 22  1  0
 12 24  1  0
 13 14  1  0
 13 16  1  0
 13 20  2  0
 14 17  1  0
 14 21  2  0
 15 22  1  0
 15 23  1  0
 15 25  2  0
 18 23  1  0
 19 24  1  0
M  END
>  <washed_aromatic_smiles>  (542) 
Cc1c(nc2cc(ccc2n1)NC(=S)N(C)c3ccc(cc3)OC)C

>  <name>  (542) 
neg221786

$$$$
neg237540
     RDKit          3D

 26 28  0  0  0  0  0  0  0  0999 V2000
    5.1650   10.7240   53.6730 C   0  0  0  0  0  0  0  0  0  0  0  0
    2.8120   -1.1590   53.0860 C   0  0  0  0  0  0  0  0  0  0  0  0
    3.9090   10.7180   53.0950 C   0  0  0  0  0  0  0  0  0  0  0  0
    5.7260    9.5210   54.0380 C   0  0  0  0  0  0  0  0  0  0  0  0
    3.1350   -0.7560   51.7950 C   0  0  0  0  0  0  0  0  0  0  0  0
    1.8590   -0.4690   53.8040 C   0  0  0  0  0  0  0  0  0  0  0  0
    3.2000    9.5310   52.8780 C   0  0  0  0  0  0  0  0  0  0  0  0
    5.0320    8.3490   53.8380 C   0  0  0  0  0  0  0  0  0  0  0  0
    2.4330    0.2610   51.1880 C   0  0  0  0  0  0  0  0  0  0  0  0
    1.1840    0.5740   53.2010 C   0  0  0  0  0  0  0  0  0  0  0  0
    3.7830    8.3050   53.1990 C   0  0  0  0  0  0  0  0  0  0  0  0
    2.7930    4.7170   49.9010 C   0  0  0  0  0  0  0  0  0  0  0  0
    1.4320    0.9200   51.8780 C   0  0  0  0  0  0  0  0  0  0  0  0
    2.1040    3.4850   49.8230 C   0  0  0  0  0  0  0  0  0  0  0  0
    1.2480    3.3080   50.8430 C   0  0  0  0  0  0  0  0  0  0  0  0
    2.3070    5.5520   50.9060 C   0  0  0  0  0  0  0  0  0  0  0  0
    3.2700    6.9900   52.7530 C   0  0  0  0  0  0  0  0  0  0  0  0
    3.8610    4.9730   49.0100 C   0  0  0  0  0  0  0  0  0  0  0  0
    2.2200    2.4940   48.6950 C   0  0  0  0  0  0  0  0  0  0  0  0
    3.5980    7.1070   48.5390 C   0  0  0  0  0  0  0  0  0  0  0  0
    0.5780    1.9410   51.1800 C   0  0  0  0  0  0  0  0  0  0  0  0
    2.6910    6.8190   51.4910 N   0  0  0  0  0  0  0  0  0  0  0  0
    3.5000    5.9760   53.3850 O   0  0  0  0  0  0  0  0  0  0  0  0
    4.2390    4.2500   48.0960 O   0  0  0  0  0  0  0  0  0  0  0  0
    4.4180    6.1390   49.1160 O   0  0  0  0  0  0  0  0  0  0  0  0
    0.9240    4.8840   51.5840 S   0  0  0  0  0  0  0  0  0  0  0  0
  1  3  2  0
  1  4  1  0
  2  5  2  0
  2  6  1  0
  3  7  1  0
  4  8  2  0
  5  9  1  0
  6 10  2  0
  7 11  2  0
  8 11  1  0
  9 13  2  0
 10 13  1  0
 11 17  1  0
 12 14  1  0
 12 16  2  0
 12 18  1  0
 13 21  1  0
 14 15  2  0
 14 19  1  0
 15 21  1  0
 15 26  1  0
 16 22  1  0
 16 26  1  0
 17 22  1  0
 17 23  2  0
 18 24  2  0
 18 25  1  0
 20 25  1  0
M  END
>  <washed_aromatic_smiles>  (543) 
Cc1c(sc(c1C(=O)OC)NC(=O)c2ccccc2)Cc3ccccc3

>  <name>  (543) 
neg237540

$$$$
neg99039
     RDKit          3D

 26 28  0  0  0  0  0  0  0  0999 V2000
    0.4950   -0.1300   48.7040 C   0  0  0  0  0  0  0  0  0  0  0  0
    0.2640    0.7740   47.6660 C   0  0  0  0  0  0  0  0  0  0  0  0
    1.1600    0.2780   49.8480 C   0  0  0  0  0  0  0  0  0  0  0  0
    0.6970    2.0790   47.7790 C   0  0  0  0  0  0  0  0  0  0  0  0
    2.2000    9.1620   55.9420 C   0  0  0  0  0  0  0  0  0  0  0  0
    3.4180    9.3060   55.2960 C   0  0  0  0  0  0  0  0  0  0  0  0
    1.2490    8.1190   53.9570 C   0  0  0  0  0  0  0  0  0  0  0  0
    1.6170    1.6050   49.9780 C   0  0  0  0  0  0  0  0  0  0  0  0
    1.3760    2.5080   48.9280 C   0  0  0  0  0  0  0  0  0  0  0  0
    2.5050    8.1630   53.3520 C   0  0  0  0  0  0  0  0  0  0  0  0
    1.1150    8.6150   55.2470 C   0  0  0  0  0  0  0  0  0  0  0  0
    3.5550    8.8550   53.9840 C   0  0  0  0  0  0  0  0  0  0  0  0
    2.3160    2.0850   51.1450 C   0  0  0  0  0  0  0  0  0  0  0  0
    1.8250    3.8750   49.0600 C   0  0  0  0  0  0  0  0  0  0  0  0
    2.1530    6.3550   51.6090 C   0  0  0  0  0  0  0  0  0  0  0  0
    2.6400    1.1520   52.2950 C   0  0  0  0  0  0  0  0  0  0  0  0
   -0.4400    8.7420   57.2520 C   0  0  0  0  0  0  0  0  0  0  0  0
    5.8950    9.7530   53.8110 C   0  0  0  0  0  0  0  0  0  0  0  0
    2.9050    5.6140   50.5170 C   0  0  0  0  0  0  0  0  0  0  0  0
    2.6840    3.3130   51.2540 N   0  0  0  0  0  0  0  0  0  0  0  0
    2.4510    4.2300   50.2540 N   0  0  0  0  0  0  0  0  0  0  0  0
    2.7890    7.4680   52.1340 N   0  0  0  0  0  0  0  0  0  0  0  0
    1.6900    4.7220   48.1780 O   0  0  0  0  0  0  0  0  0  0  0  0
    1.0730    5.9740   52.0270 O   0  0  0  0  0  0  0  0  0  0  0  0
   -0.1300    8.5050   55.8470 O   0  0  0  0  0  0  0  0  0  0  0  0
    4.7160    9.1140   53.2880 O   0  0  0  0  0  0  0  0  0  0  0  0
  1  2  2  0
  1  3  1  0
  2  4  1  0
  3  8  2  0
  4  9  2  0
  5  6  2  0
  5 11  1  0
  6 12  1  0
  7 10  1  0
  7 11  2  0
  8  9  1  0
  8 13  1  0
  9 14  1  0
 10 12  2  0
 10 22  1  0
 11 25  1  0
 12 26  1  0
 13 16  1  0
 13 20  2  0
 14 21  1  0
 14 23  2  0
 15 19  1  0
 15 22  1  0
 15 24  2  0
 17 25  1  0
 18 26  1  0
 19 21  1  0
 20 21  1  0
M  END
>  <washed_aromatic_smiles>  (544) 
Cc1c2ccccc2c(=O)n(n1)CC(=O)Nc3cc(ccc3OC)OC

>  <name>  (544) 
neg99039

$$$$
neg289267
     RDKit          3D

 30 33  0  0  0  0  0  0  0  0999 V2000
    6.0190   12.9590   59.2000 C   0  0  0  0  0  0  0  0  0  0  0  0
    5.9180   13.8670   58.1480 C   0  0  0  0  0  0  0  0  0  0  0  0
    5.7100   11.6250   58.9950 C   0  0  0  0  0  0  0  0  0  0  0  0
    5.4770   13.4360   56.9110 C   0  0  0  0  0  0  0  0  0  0  0  0
    2.9770    5.2000   52.3900 C   0  0  0  0  0  0  0  0  0  0  0  0
    1.0090    5.7550   51.1500 C   0  0  0  0  0  0  0  0  0  0  0  0
    2.9840    6.4510   52.9700 C   0  0  0  0  0  0  0  0  0  0  0  0
    0.9340    6.9680   51.8170 C   0  0  0  0  0  0  0  0  0  0  0  0
    5.3680   11.1520   57.7150 C   0  0  0  0  0  0  0  0  0  0  0  0
    5.2340   12.0820   56.6740 C   0  0  0  0  0  0  0  0  0  0  0  0
    2.0370    4.8410   51.4150 C   0  0  0  0  0  0  0  0  0  0  0  0
    1.9790    7.3510   52.6400 C   0  0  0  0  0  0  0  0  0  0  0  0
    5.2270    9.7490   57.4040 C   0  0  0  0  0  0  0  0  0  0  0  0
    4.8790   11.6230   55.3570 C   0  0  0  0  0  0  0  0  0  0  0  0
    2.0950    3.6080   50.6200 C   0  0  0  0  0  0  0  0  0  0  0  0
    2.7550    8.9960   54.1800 C   0  0  0  0  0  0  0  0  0  0  0  0
    2.4470   -0.5040   52.1350 C   0  0  0  0  0  0  0  0  0  0  0  0
    2.4170    0.6870   53.0930 C   0  0  0  0  0  0  0  0  0  0  0  0
    1.6530   -0.1210   50.8860 C   0  0  0  0  0  0  0  0  0  0  0  0
    2.9320    1.9810   52.4350 C   0  0  0  0  0  0  0  0  0  0  0  0
    2.2070    1.1560   50.2370 C   0  0  0  0  0  0  0  0  0  0  0  0
    5.5120    8.6760   58.4370 C   0  0  0  0  0  0  0  0  0  0  0  0
    4.0770    9.7110   53.9880 C   0  0  0  0  0  0  0  0  0  0  0  0
    4.8970    9.3580   56.2270 N   0  0  0  0  0  0  0  0  0  0  0  0
    4.6520   10.2590   55.2170 N   0  0  0  0  0  0  0  0  0  0  0  0
    2.2780    2.3150   51.1470 N   0  0  0  0  0  0  0  0  0  0  0  0
    2.0890    8.6840   53.0370 N   0  0  0  0  0  0  0  0  0  0  0  0
    4.7800   12.3610   54.3690 O   0  0  0  0  0  0  0  0  0  0  0  0
    1.9290    3.6840   49.4020 O   0  0  0  0  0  0  0  0  0  0  0  0
    2.3410    8.5570   55.2370 O   0  0  0  0  0  0  0  0  0  0  0  0
  1  2  2  0
  1  3  1  0
  2  4  1  0
  3  9  2  0
  4 10  2  0
  5  7  2  0
  5 11  1  0
  6  8  1  0
  6 11  2  0
  7 12  1  0
  8 12  2  0
  9 10  1  0
  9 13  1  0
 10 14  1  0
 11 15  1  0
 12 27  1  0
 13 22  1  0
 13 24  2  0
 14 25  1  0
 14 28  2  0
 15 26  1  0
 15 29  2  0
 16 23  1  0
 16 27  1  0
 16 30  2  0
 17 18  1  0
 17 19  1  0
 18 20  1  0
 19 21  1  0
 20 26  1  0
 21 26  1  0
 23 25  1  0
 24 25  1  0
M  END
>  <washed_aromatic_smiles>  (545) 
Cc1c2ccccc2c(=O)n(n1)CC(=O)Nc3ccc(cc3)C(=O)N4CCCCC4

>  <name>  (545) 
neg289267

$$$$
neg99065
     RDKit          3D

 26 28  0  0  0  0  0  0  0  0999 V2000
    5.1190    9.3120   58.1410 C   0  0  0  0  0  0  0  0  0  0  0  0
    6.0210    8.7840   57.2230 C   0  0  0  0  0  0  0  0  0  0  0  0
    3.8220    9.5760   57.7450 C   0  0  0  0  0  0  0  0  0  0  0  0
    5.6400    8.6630   55.8980 C   0  0  0  0  0  0  0  0  0  0  0  0
    2.0310    3.4280   49.1480 C   0  0  0  0  0  0  0  0  0  0  0  0
    2.5520    2.8360   51.4310 C   0  0  0  0  0  0  0  0  0  0  0  0
    2.2360    4.7670   49.4440 C   0  0  0  0  0  0  0  0  0  0  0  0
    2.7190    4.1750   51.7400 C   0  0  0  0  0  0  0  0  0  0  0  0
    3.3480    9.2030   56.4840 C   0  0  0  0  0  0  0  0  0  0  0  0
    4.3210    8.9280   55.5200 C   0  0  0  0  0  0  0  0  0  0  0  0
    2.1400    2.4500   50.1510 C   0  0  0  0  0  0  0  0  0  0  0  0
    2.5120    5.1430   50.7620 C   0  0  0  0  0  0  0  0  0  0  0  0
    1.9500    9.0320   56.1200 C   0  0  0  0  0  0  0  0  0  0  0  0
    3.9250    8.9520   54.1480 C   0  0  0  0  0  0  0  0  0  0  0  0
    1.8020    1.0630   49.8990 C   0  0  0  0  0  0  0  0  0  0  0  0
    1.8440    7.0410   52.1820 C   0  0  0  0  0  0  0  0  0  0  0  0
    0.7700    9.0210   57.1210 C   0  0  0  0  0  0  0  0  0  0  0  0
    0.4990   -0.5020   48.5290 C   0  0  0  0  0  0  0  0  0  0  0  0
    2.1040    8.4860   52.5500 C   0  0  0  0  0  0  0  0  0  0  0  0
    1.6350    8.7620   54.8980 N   0  0  0  0  0  0  0  0  0  0  0  0
    2.5810    8.7180   53.9030 N   0  0  0  0  0  0  0  0  0  0  0  0
    2.5720    6.5010   51.1360 N   0  0  0  0  0  0  0  0  0  0  0  0
    4.6920    9.2270   53.2270 O   0  0  0  0  0  0  0  0  0  0  0  0
    2.1790    0.1280   50.5940 O   0  0  0  0  0  0  0  0  0  0  0  0
    0.9970    6.3750   52.7460 O   0  0  0  0  0  0  0  0  0  0  0  0
    0.9870    0.8130   48.8500 O   0  0  0  0  0  0  0  0  0  0  0  0
  1  2  2  0
  1  3  1  0
  2  4  1  0
  3  9  2  0
  4 10  2  0
  5  7  2  0
  5 11  1  0
  6  8  1  0
  6 11  2  0
  7 12  1  0
  8 12  2  0
  9 10  1  0
  9 13  1  0
 10 14  1  0
 11 15  1  0
 12 22  1  0
 13 17  1  0
 13 20  2  0
 14 21  1  0
 14 23  2  0
 15 24  2  0
 15 26  1  0
 16 19  1  0
 16 22  1  0
 16 25  2  0
 18 26  1  0
 19 21  1  0
 20 21  1  0
M  END
>  <washed_aromatic_smiles>  (546) 
Cc1c2ccccc2c(=O)n(n1)CC(=O)Nc3ccc(cc3)C(=O)OC

>  <name>  (546) 
neg99065

$$$$
neg13503
     RDKit          3D

 27 30  0  0  0  0  0  0  0  0999 V2000
    3.7760    9.8350   57.3510 C   0  0  0  0  0  0  0  0  0  0  0  0
   -0.0140    0.8550   47.1820 C   0  0  0  0  0  0  0  0  0  0  0  0
   -0.4700    0.0400   48.2450 C   0  0  0  0  0  0  0  0  0  0  0  0
    4.6740   10.1520   56.3410 C   0  0  0  0  0  0  0  0  0  0  0  0
    2.5420    9.2830   57.0280 C   0  0  0  0  0  0  0  0  0  0  0  0
    0.8450    1.9120   47.4130 C   0  0  0  0  0  0  0  0  0  0  0  0
   -0.0310    0.2710   49.5310 C   0  0  0  0  0  0  0  0  0  0  0  0
    4.3340    9.9140   55.0130 C   0  0  0  0  0  0  0  0  0  0  0  0
    2.2000    9.0550   55.7050 C   0  0  0  0  0  0  0  0  0  0  0  0
    1.2680    2.1580   48.7170 C   0  0  0  0  0  0  0  0  0  0  0  0
    2.0740    3.1200   49.3380 C   0  0  0  0  0  0  0  0  0  0  0  0
    0.8380    1.3190   49.7240 C   0  0  0  0  0  0  0  0  0  0  0  0
    3.0870    9.3730   54.6900 C   0  0  0  0  0  0  0  0  0  0  0  0
    2.0730    2.7950   50.6560 C   0  0  0  0  0  0  0  0  0  0  0  0
    2.6820    3.3730   51.8070 C   0  0  0  0  0  0  0  0  0  0  0  0
    1.3690    5.4870   51.6550 C   0  0  0  0  0  0  0  0  0  0  0  0
    3.6530    5.4670   52.5810 C   0  0  0  0  0  0  0  0  0  0  0  0
    1.6250    6.9820   51.7450 C   0  0  0  0  0  0  0  0  0  0  0  0
    3.3260    6.6400   53.4690 C   0  0  0  0  0  0  0  0  0  0  0  0
    2.7850    4.2710   48.6600 C   0  0  0  0  0  0  0  0  0  0  0  0
    2.5430    4.7140   52.0540 N   0  0  0  0  0  0  0  0  0  0  0  0
    2.2670    7.4720   52.9710 N   0  0  0  0  0  0  0  0  0  0  0  0
    3.2220    2.6520   52.6340 O   0  0  0  0  0  0  0  0  0  0  0  0
    1.4520    9.7750   52.6470 O   0  0  0  0  0  0  0  0  0  0  0  0
    3.7830    9.2880   52.2090 O   0  0  0  0  0  0  0  0  0  0  0  0
    1.3390    1.6850   50.8990 O   0  0  0  0  0  0  0  0  0  0  0  0
    2.6250    9.0590   52.9940 S   0  0  0  0  0  0  0  0  0  0  0  0
  1  4  2  0
  1  5  1  0
  2  3  2  0
  2  6  1  0
  3  7  1  0
  4  8  1  0
  5  9  2  0
  6 10  2  0
  7 12  2  0
  8 13  2  0
  9 13  1  0
 10 11  1  0
 10 12  1  0
 11 14  2  0
 11 20  1  0
 12 26  1  0
 13 27  1  0
 14 15  1  0
 14 26  1  0
 15 21  1  0
 15 23  2  0
 16 18  1  0
 16 21  1  0
 17 19  1  0
 17 21  1  0
 18 22  1  0
 19 22  1  0
 22 27  1  0
 24 27  2  0
 25 27  2  0
M  END
>  <washed_aromatic_smiles>  (547) 
Cc1c2ccccc2oc1C(=O)N3CCN(CC3)S(=O)(=O)c4ccccc4

>  <name>  (547) 
neg13503

$$$$
neg20178
     RDKit          3D

 32 33  0  0  0  0  0  0  0  0999 V2000
    4.6620   10.3750   57.9810 C   0  0  0  0  0  0  0  0  0  0  0  0
    4.1120    9.6930   56.9050 C   0  0  0  0  0  0  0  0  0  0  0  0
    5.3940    9.6870   58.9390 C   0  0  0  0  0  0  0  0  0  0  0  0
    1.8740    3.1330   49.2060 C   0  0  0  0  0  0  0  0  0  0  0  0
    0.9170    0.9900   49.6950 C   0  0  0  0  0  0  0  0  0  0  0  0
    1.1990    1.9930   48.7770 C   0  0  0  0  0  0  0  0  0  0  0  0
    2.3370    3.2450   50.5170 C   0  0  0  0  0  0  0  0  0  0  0  0
    1.3570    1.0830   51.0100 C   0  0  0  0  0  0  0  0  0  0  0  0
    2.2030    2.1420   51.3870 C   0  0  0  0  0  0  0  0  0  0  0  0
    4.9730    7.5960   57.7860 C   0  0  0  0  0  0  0  0  0  0  0  0
    4.2900    8.3150   56.7800 C   0  0  0  0  0  0  0  0  0  0  0  0
    5.5500    8.3030   58.8560 C   0  0  0  0  0  0  0  0  0  0  0  0
    5.0930    5.2240   58.6910 C   0  0  0  0  0  0  0  0  0  0  0  0
    3.1310    1.1350   53.5700 C   0  0  0  0  0  0  0  0  0  0  0  0
    4.6860    1.7210   58.4800 C   0  0  0  0  0  0  0  0  0  0  0  0
    0.6920    1.8730   47.3570 C   0  0  0  0  0  0  0  0  0  0  0  0
    2.8380    4.6150   50.9420 C   0  0  0  0  0  0  0  0  0  0  0  0
    0.7640    0.1030   51.9880 C   0  0  0  0  0  0  0  0  0  0  0  0
    5.5160    2.6400   60.6030 C   0  0  0  0  0  0  0  0  0  0  0  0
    4.2880   -0.4490   56.1180 C   0  0  0  0  0  0  0  0  0  0  0  0
    5.8840    3.9320   58.4970 C   0  0  0  0  0  0  0  0  0  0  0  0
    2.9030    1.4500   55.0590 C   0  0  0  0  0  0  0  0  0  0  0  0
    4.5420    1.8540   56.9500 C   0  0  0  0  0  0  0  0  0  0  0  0
    2.8440    2.1810   52.6930 N   0  0  0  0  0  0  0  0  0  0  0  0
    5.1680    6.1660   57.6780 N   0  0  0  0  0  0  0  0  0  0  0  0
    5.3500    2.7010   59.1440 N   0  0  0  0  0  0  0  0  0  0  0  0
    3.6640    0.8770   56.2460 N   0  0  0  0  0  0  0  0  0  0  0  0
    4.4980    5.4780   59.7230 O   0  0  0  0  0  0  0  0  0  0  0  0
    3.3610    0.0240   53.1400 O   0  0  0  0  0  0  0  0  0  0  0  0
    4.1940    0.7540   59.0640 O   0  0  0  0  0  0  0  0  0  0  0  0
    3.6830    7.6000   55.3280 Cl  0  0  0  0  0  0  0  0  0  0  0  0
    6.5200    7.5240   60.0590 Cl  0  0  0  0  0  0  0  0  0  0  0  0
  1  2  2  0
  1  3  1  0
  2 11  1  0
  3 12  2  0
  4  6  2  0
  4  7  1  0
  5  6  1  0
  5  8  2  0
  6 16  1  0
  7  9  2  0
  7 17  1  0
  8  9  1  0
  8 18  1  0
  9 24  1  0
 10 11  2  0
 10 12  1  0
 10 25  1  0
 11 31  1  0
 12 32  1  0
 13 21  1  0
 13 25  1  0
 13 28  2  0
 14 22  1  0
 14 24  1  0
 14 29  2  0
 15 23  1  0
 15 26  1  0
 15 30  2  0
 19 26  1  0
 20 27  1  0
 21 26  1  0
 22 27  1  0
 23 27  1  0
M  END
>  <washed_aromatic_smiles>  (548) 
Cc1cc(c(c(c1)C)NC(=O)CN(C)CC(=O)N(C)CC(=O)Nc2c(cccc2Cl)Cl)C

>  <name>  (548) 
neg20178

$$$$
neg262150
     RDKit          3D

 26 28  0  0  0  0  0  0  0  0999 V2000
    5.4740   12.6900   55.6910 C   0  0  0  0  0  0  0  0  0  0  0  0
    5.4790   11.3420   57.6830 C   0  0  0  0  0  0  0  0  0  0  0  0
    5.5970   12.5850   57.0740 C   0  0  0  0  0  0  0  0  0  0  0  0
    5.2950   11.5560   54.9050 C   0  0  0  0  0  0  0  0  0  0  0  0
    5.3770   10.1790   56.9310 C   0  0  0  0  0  0  0  0  0  0  0  0
    5.2700   10.2940   55.5240 C   0  0  0  0  0  0  0  0  0  0  0  0
    4.3550    8.1020   54.8110 C   0  0  0  0  0  0  0  0  0  0  0  0
   -0.3160    8.7770   53.7950 C   0  0  0  0  0  0  0  0  0  0  0  0
    1.7000    4.4510   49.3890 C   0  0  0  0  0  0  0  0  0  0  0  0
    0.2530    9.3840   52.5780 C   0  0  0  0  0  0  0  0  0  0  0  0
    0.5200    8.2460   54.9160 C   0  0  0  0  0  0  0  0  0  0  0  0
    2.0150    3.7780   50.7160 C   0  0  0  0  0  0  0  0  0  0  0  0
    2.9460    5.2310   49.0020 C   0  0  0  0  0  0  0  0  0  0  0  0
    1.3740    8.4900   52.2340 C   0  0  0  0  0  0  0  0  0  0  0  0
    1.3090    7.1560   54.1990 C   0  0  0  0  0  0  0  0  0  0  0  0
    2.1750    4.8430   51.8080 C   0  0  0  0  0  0  0  0  0  0  0  0
    3.4240    6.2310   50.0690 C   0  0  0  0  0  0  0  0  0  0  0  0
    2.1700    7.8390   53.2180 C   0  0  0  0  0  0  0  0  0  0  0  0
    3.2350    5.9170   51.5820 C   0  0  0  0  0  0  0  0  0  0  0  0
    5.9650   13.7810   57.9200 C   0  0  0  0  0  0  0  0  0  0  0  0
    5.1710   11.7120   53.3980 C   0  0  0  0  0  0  0  0  0  0  0  0
    5.5100    8.8780   57.7100 C   0  0  0  0  0  0  0  0  0  0  0  0
    4.2270    7.0540   53.6900 C   0  0  0  0  0  0  0  0  0  0  0  0
    5.2060    9.1610   54.6520 N   0  0  0  0  0  0  0  0  0  0  0  0
    3.2950    7.1780   52.5980 N   0  0  0  0  0  0  0  0  0  0  0  0
    3.6530    8.0530   55.8010 O   0  0  0  0  0  0  0  0  0  0  0  0
  1  3  2  0
  1  4  1  0
  2  3  1  0
  2  5  2  0
  3 20  1  0
  4  6  2  0
  4 21  1  0
  5  6  1  0
  5 22  1  0
  6 24  1  0
  7 23  1  0
  7 24  1  0
  7 26  2  0
  8 10  1  0
  8 11  1  0
  9 12  1  0
  9 13  1  0
 10 14  1  0
 11 15  1  0
 12 16  1  0
 13 17  1  0
 14 18  1  0
 15 18  1  0
 16 19  1  0
 17 19  1  0
 18 25  1  0
 19 25  1  0
 23 25  1  0
M  CHG  1  25   1
M  END
>  <washed_aromatic_smiles>  (549) 
Cc1cc(c(c(c1)C)NC(=O)CN(C2CCCCC2)C3CCCCC3)C

>  <name>  (549) 
neg262150

$$$$
neg329126
     RDKit          3D

 27 29  0  0  0  0  0  0  0  0999 V2000
    2.7120    2.6850   51.4370 C   0  0  0  0  0  0  0  0  0  0  0  0
    1.2910    2.1860   49.5320 C   0  0  0  0  0  0  0  0  0  0  0  0
    2.9660    1.3430   51.6110 C   0  0  0  0  0  0  0  0  0  0  0  0
    1.5120    0.8300   49.7330 C   0  0  0  0  0  0  0  0  0  0  0  0
    4.4140   10.8890   57.2960 C   0  0  0  0  0  0  0  0  0  0  0  0
    5.7120   12.2230   55.7740 C   0  0  0  0  0  0  0  0  0  0  0  0
    5.2780   11.9580   57.0700 C   0  0  0  0  0  0  0  0  0  0  0  0
    3.9490   10.1000   56.2460 C   0  0  0  0  0  0  0  0  0  0  0  0
    5.2810   11.4450   54.7030 C   0  0  0  0  0  0  0  0  0  0  0  0
    1.8430    3.1120   50.4250 C   0  0  0  0  0  0  0  0  0  0  0  0
    4.3960   10.3810   54.9390 C   0  0  0  0  0  0  0  0  0  0  0  0
    2.3190    0.4210   50.7940 C   0  0  0  0  0  0  0  0  0  0  0  0
    3.6060    8.4110   53.5090 C   0  0  0  0  0  0  0  0  0  0  0  0
    2.5680    5.2260   49.6510 C   0  0  0  0  0  0  0  0  0  0  0  0
    1.0740    5.0580   51.6030 C   0  0  0  0  0  0  0  0  0  0  0  0
    3.2320    6.3700   50.4500 C   0  0  0  0  0  0  0  0  0  0  0  0
    1.2340    6.5330   51.8140 C   0  0  0  0  0  0  0  0  0  0  0  0
    5.6960   12.8590   58.2160 C   0  0  0  0  0  0  0  0  0  0  0  0
    2.9300    9.0320   56.5820 C   0  0  0  0  0  0  0  0  0  0  0  0
    5.7360   11.7890   53.2960 C   0  0  0  0  0  0  0  0  0  0  0  0
    2.2900   -1.2390   52.4670 C   0  0  0  0  0  0  0  0  0  0  0  0
    2.9320    8.1990   52.1670 C   0  0  0  0  0  0  0  0  0  0  0  0
    1.5030    4.4740   50.3150 N   0  0  0  0  0  0  0  0  0  0  0  0
    2.6500    6.8010   51.7690 N   0  0  0  0  0  0  0  0  0  0  0  0
    3.8860    9.7310   53.7700 N   0  0  0  0  0  0  0  0  0  0  0  0
    3.8710    7.5280   54.2990 O   0  0  0  0  0  0  0  0  0  0  0  0
    2.4350   -0.9070   51.0730 O   0  0  0  0  0  0  0  0  0  0  0  0
  1  3  2  0
  1 10  1  0
  2  4  1  0
  2 10  2  0
  3 12  1  0
  4 12  2  0
  5  7  2  0
  5  8  1  0
  6  7  1  0
  6  9  2  0
  7 18  1  0
  8 11  2  0
  8 19  1  0
  9 11  1  0
  9 20  1  0
 10 23  1  0
 11 25  1  0
 12 27  1  0
 13 22  1  0
 13 25  1  0
 13 26  2  0
 14 16  1  0
 14 23  1  0
 15 17  1  0
 15 23  1  0
 16 24  1  0
 17 24  1  0
 21 27  1  0
 22 24  1  0
M  END
>  <washed_aromatic_smiles>  (550) 
Cc1cc(c(c(c1)C)NC(=O)CN2CCN(CC2)c3ccc(cc3)OC)C

>  <name>  (550) 
neg329126

$$$$
neg89249
     RDKit          3D

 25 27  0  0  0  0  0  0  0  0999 V2000
    1.3350    3.2890   48.9820 C   0  0  0  0  0  0  0  0  0  0  0  0
    1.6960    4.5050   49.5610 C   0  0  0  0  0  0  0  0  0  0  0  0
    3.9460    8.7270   54.8110 C   0  0  0  0  0  0  0  0  0  0  0  0
    1.6440    8.7140   55.3850 C   0  0  0  0  0  0  0  0  0  0  0  0
    2.5060    3.3940   51.5470 C   0  0  0  0  0  0  0  0  0  0  0  0
    2.9740    8.7980   55.7950 C   0  0  0  0  0  0  0  0  0  0  0  0
    3.5730    8.4920   53.5040 C   0  0  0  0  0  0  0  0  0  0  0  0
    1.3140    8.3780   54.0830 C   0  0  0  0  0  0  0  0  0  0  0  0
    1.5480    2.1320   49.7200 C   0  0  0  0  0  0  0  0  0  0  0  0
    2.1260    2.1870   50.9690 C   0  0  0  0  0  0  0  0  0  0  0  0
    2.2970    7.9250   53.1950 C   0  0  0  0  0  0  0  0  0  0  0  0
    2.2730    4.5790   50.8470 C   0  0  0  0  0  0  0  0  0  0  0  0
    1.7830    0.0230   50.4660 C   0  0  0  0  0  0  0  0  0  0  0  0
    3.3590    9.1500   57.2070 C   0  0  0  0  0  0  0  0  0  0  0  0
    4.2450    9.4200   52.5440 C   0  0  0  0  0  0  0  0  0  0  0  0
   -0.0490    8.5670   53.5210 C   0  0  0  0  0  0  0  0  0  0  0  0
    0.6090    0.2680   48.2550 C   0  0  0  0  0  0  0  0  0  0  0  0
    2.7740    0.4920   52.7380 C   0  0  0  0  0  0  0  0  0  0  0  0
    1.3010    0.7960   49.4270 N   0  0  0  0  0  0  0  0  0  0  0  0
    2.2560    0.8840   51.4340 N   0  0  0  0  0  0  0  0  0  0  0  0
    1.9420    7.0030   52.2470 N   0  0  0  0  0  0  0  0  0  0  0  0
    1.8260   -1.2090   50.4980 O   0  0  0  0  0  0  0  0  0  0  0  0
    3.4220    6.8020   50.2620 O   0  0  0  0  0  0  0  0  0  0  0  0
    4.0090    5.7010   52.3930 O   0  0  0  0  0  0  0  0  0  0  0  0
    3.0100    6.1060   51.4480 S   0  0  2  0  0  0  0  0  0  0  0  0
  1  2  2  0
  1  9  1  0
  2 12  1  0
  3  6  2  0
  3  7  1  0
  4  6  1  0
  4  8  2  0
  5 10  1  0
  5 12  2  0
  6 14  1  0
  7 11  2  0
  7 15  1  0
  8 11  1  0
  8 16  1  0
  9 10  2  0
  9 19  1  0
 10 20  1  0
 11 21  1  0
 12 25  1  0
 13 19  1  0
 13 20  1  0
 13 22  2  0
 17 19  1  0
 18 20  1  0
 21 25  2  0
 23 25  2  0
 25 24  1  1
M  CHG  1  24  -1
M  END
>  <washed_aromatic_smiles>  (551) 
Cc1cc(c(c(c1)C)NS(=O)(=O)c2ccc3c(c2)n(c(=O)n3C)C)C

>  <name>  (551) 
neg89249

$$$$
neg180919
     RDKit          3D

 25 26  0  0  0  0  0  0  0  0999 V2000
    1.1310    1.3550   49.8300 C   0  0  0  0  0  0  0  0  0  0  0  0
    0.7710    2.3180   47.6940 C   0  0  0  0  0  0  0  0  0  0  0  0
    4.7880    9.0440   56.0500 C   0  0  0  0  0  0  0  0  0  0  0  0
    2.4760    9.1430   56.5860 C   0  0  0  0  0  0  0  0  0  0  0  0
    0.6620    0.1480   49.3240 C   0  0  0  0  0  0  0  0  0  0  0  0
    0.3130    1.0820   47.2520 C   0  0  0  0  0  0  0  0  0  0  0  0
    1.2060    2.4710   48.9990 C   0  0  0  0  0  0  0  0  0  0  0  0
    3.8020    9.3850   56.9370 C   0  0  0  0  0  0  0  0  0  0  0  0
    4.4960    8.5940   54.7770 C   0  0  0  0  0  0  0  0  0  0  0  0
    2.1370    8.6360   55.3200 C   0  0  0  0  0  0  0  0  0  0  0  0
    3.1490    8.3930   54.3610 C   0  0  0  0  0  0  0  0  0  0  0  0
    2.5060    4.2730   51.8090 C   0  0  0  0  0  0  0  0  0  0  0  0
    4.3060   10.0370   58.2060 C   0  0  0  0  0  0  0  0  0  0  0  0
    5.7510    8.4770   53.9470 C   0  0  0  0  0  0  0  0  0  0  0  0
    0.6470    8.3890   55.0350 C   0  0  0  0  0  0  0  0  0  0  0  0
    3.2600    6.6600   50.4500 C   0  0  0  0  0  0  0  0  0  0  0  0
    1.7230    3.8200   49.4670 C   0  0  0  0  0  0  0  0  0  0  0  0
    1.9080    5.6670   52.0600 C   0  0  0  0  0  0  0  0  0  0  0  0
    0.2670    0.0260   48.0610 N   0  0  0  0  0  0  0  0  0  0  0  0
    2.5750    3.6640   50.6220 N   0  0  0  0  0  0  0  0  0  0  0  0
    2.9070    6.7110   51.8880 N   0  0  0  0  0  0  0  0  0  0  0  0
    3.0370    3.6550   52.7130 O   0  0  0  0  0  0  0  0  0  0  0  0
    1.3390    8.5960   52.4310 O   0  0  0  0  0  0  0  0  0  0  0  0
    3.6270    9.1170   51.9520 O   0  0  0  0  0  0  0  0  0  0  0  0
    2.7080    8.2500   52.5740 S   0  0  0  0  0  0  0  0  0  0  0  0
  1  5  2  0
  1  7  1  0
  2  6  1  0
  2  7  2  0
  3  8  2  0
  3  9  1  0
  4  8  1  0
  4 10  2  0
  5 19  1  0
  6 19  2  0
  7 17  1  0
  8 13  1  0
  9 11  2  0
  9 14  1  0
 10 11  1  0
 10 15  1  0
 11 25  1  0
 12 18  1  0
 12 20  1  0
 12 22  2  0
 16 21  1  0
 17 20  1  0
 18 21  1  0
 21 25  1  0
 23 25  2  0
 24 25  2  0
M  END
>  <washed_aromatic_smiles>  (552) 
Cc1cc(c(c(c1)C)S(=O)(=O)N(C)CC(=O)NCc2ccncc2)C

>  <name>  (552) 
neg180919

$$$$
neg259057
     RDKit          3D

 30 32  0  0  0  0  0  0  0  0999 V2000
    2.9210    4.7470   50.2730 C   0  0  0  0  0  0  0  0  0  0  0  0
    0.9330    4.7300   51.4560 C   0  0  0  0  0  0  0  0  0  0  0  0
    5.4740   12.1060   54.5500 C   0  0  0  0  0  0  0  0  0  0  0  0
    5.1670   11.6630   56.8880 C   0  0  0  0  0  0  0  0  0  0  0  0
    1.8650    4.0220   50.7370 C   0  0  0  0  0  0  0  0  0  0  0  0
    5.2150   12.5350   55.8230 C   0  0  0  0  0  0  0  0  0  0  0  0
    3.0280    6.0930   50.6010 C   0  0  0  0  0  0  0  0  0  0  0  0
    1.1230    6.0240   51.8980 C   0  0  0  0  0  0  0  0  0  0  0  0
    5.4850   10.7660   54.2770 C   0  0  0  0  0  0  0  0  0  0  0  0
    5.1910   10.3030   56.6430 C   0  0  0  0  0  0  0  0  0  0  0  0
    2.2890    6.7200   51.6450 C   0  0  0  0  0  0  0  0  0  0  0  0
    5.1110    9.8640   55.3000 C   0  0  0  0  0  0  0  0  0  0  0  0
    1.9320    8.5930   55.1800 C   0  0  0  0  0  0  0  0  0  0  0  0
   -0.2020    8.5510   56.0400 C   0  0  0  0  0  0  0  0  0  0  0  0
    0.5320    9.0040   57.2680 C   0  0  0  0  0  0  0  0  0  0  0  0
    1.6980    2.5640   50.3660 C   0  0  0  0  0  0  0  0  0  0  0  0
    4.8680   13.9440   55.9580 C   0  0  0  0  0  0  0  0  0  0  0  0
    3.6740    6.7690   49.4660 C   0  0  0  0  0  0  0  0  0  0  0  0
   -0.0090    6.5970   52.6360 C   0  0  0  0  0  0  0  0  0  0  0  0
    5.9440   10.5060   52.8620 C   0  0  0  0  0  0  0  0  0  0  0  0
    5.3490    9.4050   57.8700 C   0  0  0  0  0  0  0  0  0  0  0  0
    0.7100    8.3710   54.9180 N   0  0  0  0  0  0  0  0  0  0  0  0
    2.9590    8.2620   54.2500 N   0  0  0  0  0  0  0  0  0  0  0  0
    1.4330    9.2320   52.4720 O   0  0  0  0  0  0  0  0  0  0  0  0
    3.7190    9.0050   51.9470 O   0  0  0  0  0  0  0  0  0  0  0  0
    4.5070    7.4320   56.0870 O   0  0  0  0  0  0  0  0  0  0  0  0
    5.4490    7.7390   53.9180 O   0  0  0  0  0  0  0  0  0  0  0  0
    2.2620    9.2270   56.7670 S   0  0  0  0  0  0  0  0  0  0  0  0
    2.5990    8.4290   52.5500 S   0  0  0  0  0  0  0  0  0  0  0  0
    4.5580    8.2000   54.8940 S   0  0  0  0  0  0  0  0  0  0  0  0
  1  5  2  0
  1  7  1  0
  2  5  1  0
  2  8  2  0
  3  6  2  0
  3  9  1  0
  4  6  1  0
  4 10  2  0
  5 16  1  0
  6 17  1  0
  7 11  2  0
  7 18  1  0
  8 11  1  0
  8 19  1  0
  9 12  2  0
  9 20  1  0
 10 12  1  0
 10 21  1  0
 11 29  1  0
 12 30  1  0
 13 22  2  0
 13 23  1  0
 13 28  1  0
 14 15  1  0
 14 22  1  0
 15 28  1  0
 23 29  1  0
 23 30  1  0
 24 29  2  0
 25 29  2  0
 26 30  2  0
 27 30  2  0
M  END
>  <washed_aromatic_smiles>  (553) 
Cc1cc(c(c(c1)C)S(=O)(=O)N(C2=NCCS2)S(=O)(=O)c3c(cc(cc3C)C)C)C

>  <name>  (553) 
neg259057

$$$$
neg110969
     RDKit          3D

 26 28  0  0  0  0  0  0  0  0999 V2000
    2.7090    9.2320   56.6820 C   0  0  0  0  0  0  0  0  0  0  0  0
    5.0460    9.1850   56.2080 C   0  0  0  0  0  0  0  0  0  0  0  0
    4.0240    9.4740   57.0800 C   0  0  0  0  0  0  0  0  0  0  0  0
    2.4150    8.8420   55.3680 C   0  0  0  0  0  0  0  0  0  0  0  0
    4.7950    8.8440   54.8930 C   0  0  0  0  0  0  0  0  0  0  0  0
    3.4610    8.7660   54.4280 C   0  0  0  0  0  0  0  0  0  0  0  0
    2.3930    3.0480   51.0240 C   0  0  0  0  0  0  0  0  0  0  0  0
    0.6490    0.3390   48.2450 C   0  0  0  0  0  0  0  0  0  0  0  0
    0.9970    0.1110   49.7260 C   0  0  0  0  0  0  0  0  0  0  0  0
    0.7890    1.8110   47.8130 C   0  0  0  0  0  0  0  0  0  0  0  0
    0.7050    1.3310   50.5900 C   0  0  0  0  0  0  0  0  0  0  0  0
    1.7150    2.6620   48.7010 C   0  0  0  0  0  0  0  0  0  0  0  0
    2.1900    5.5380   50.2730 C   0  0  0  0  0  0  0  0  0  0  0  0
    3.1300    4.9320   52.4310 C   0  0  0  0  0  0  0  0  0  0  0  0
    3.0270    6.8040   50.6060 C   0  0  0  0  0  0  0  0  0  0  0  0
    2.4590    6.2220   52.8960 C   0  0  0  0  0  0  0  0  0  0  0  0
    4.4600   10.0560   58.4040 C   0  0  0  0  0  0  0  0  0  0  0  0
    0.9580    8.5000   55.0050 C   0  0  0  0  0  0  0  0  0  0  0  0
    6.0480    8.6110   54.0720 C   0  0  0  0  0  0  0  0  0  0  0  0
    1.4430    2.5560   50.1470 N   0  0  0  0  0  0  0  0  0  0  0  0
    2.5930    4.4280   51.1580 N   0  0  0  0  0  0  0  0  0  0  0  0
    2.9190    7.2700   52.0590 N   0  0  0  0  0  0  0  0  0  0  0  0
    3.0210    2.2560   51.7390 O   0  0  0  0  0  0  0  0  0  0  0  0
    1.8630    9.5320   52.4990 O   0  0  0  0  0  0  0  0  0  0  0  0
    4.2130    9.4560   52.0600 O   0  0  0  0  0  0  0  0  0  0  0  0
    3.0900    8.8370   52.6510 S   0  0  0  0  0  0  0  0  0  0  0  0
  1  3  2  0
  1  4  1  0
  2  3  1  0
  2  5  2  0
  3 17  1  0
  4  6  2  0
  4 18  1  0
  5  6  1  0
  5 19  1  0
  6 26  1  0
  7 20  1  0
  7 21  1  0
  7 23  2  0
  8  9  1  0
  8 10  1  0
  9 11  1  0
 10 12  1  0
 11 20  1  0
 12 20  1  0
 13 15  1  0
 13 21  1  0
 14 16  1  0
 14 21  1  0
 15 22  1  0
 16 22  1  0
 22 26  1  0
 24 26  2  0
 25 26  2  0
M  END
>  <washed_aromatic_smiles>  (554) 
Cc1cc(c(c(c1)C)S(=O)(=O)N2CCN(CC2)C(=O)N3CCCCC3)C

>  <name>  (554) 
neg110969

$$$$
neg66236
     RDKit          3D

 27 29  0  0  0  0  0  0  0  0999 V2000
    2.5000    9.2460   56.6900 C   0  0  0  0  0  0  0  0  0  0  0  0
    4.8080    9.2570   56.0990 C   0  0  0  0  0  0  0  0  0  0  0  0
    3.8270    9.5350   57.0170 C   0  0  0  0  0  0  0  0  0  0  0  0
    2.1510    8.7750   55.4160 C   0  0  0  0  0  0  0  0  0  0  0  0
    4.5040    8.8130   54.8270 C   0  0  0  0  0  0  0  0  0  0  0  0
    3.1560    8.6080   54.4430 C   0  0  0  0  0  0  0  0  0  0  0  0
    3.5160    5.7470   52.7420 C   0  0  0  0  0  0  0  0  0  0  0  0
    2.1200    6.4670   50.9340 C   0  0  0  0  0  0  0  0  0  0  0  0
    2.9060    4.3880   52.4130 C   0  0  0  0  0  0  0  0  0  0  0  0
    1.9600    5.0120   50.3910 C   0  0  0  0  0  0  0  0  0  0  0  0
    0.6080    1.1290   50.2570 C   0  0  0  0  0  0  0  0  0  0  0  0
    1.6820    0.9530   52.5070 C   0  0  0  0  0  0  0  0  0  0  0  0
   -0.6700    0.6500   50.9030 C   0  0  0  0  0  0  0  0  0  0  0  0
    0.9120   -0.3180   52.4730 C   0  0  0  0  0  0  0  0  0  0  0  0
    4.3390   10.1500   58.3030 C   0  0  0  0  0  0  0  0  0  0  0  0
    0.6720    8.4380   55.1230 C   0  0  0  0  0  0  0  0  0  0  0  0
    5.7320    8.6320   53.9680 C   0  0  0  0  0  0  0  0  0  0  0  0
    2.5690    6.7590   52.3110 N   0  0  0  0  0  0  0  0  0  0  0  0
    2.8370    4.0440   51.0360 N   0  0  0  0  0  0  0  0  0  0  0  0
    1.4860    1.7680   51.2400 N   0  0  0  0  0  0  0  0  0  0  0  0
    1.3860    8.9680   52.5330 O   0  0  0  0  0  0  0  0  0  0  0  0
    3.6830    8.9950   51.9260 O   0  0  0  0  0  0  0  0  0  0  0  0
    2.7920    2.3360   49.1960 O   0  0  0  0  0  0  0  0  0  0  0  0
    3.9070    1.7560   51.2800 O   0  0  0  0  0  0  0  0  0  0  0  0
   -0.4270   -0.0520   52.1010 O   0  0  0  0  0  0  0  0  0  0  0  0
    2.6740    8.3940   52.7020 S   0  0  0  0  0  0  0  0  0  0  0  0
    2.8330    2.4270   50.6210 S   0  0  0  0  0  0  0  0  0  0  0  0
  1  3  2  0
  1  4  1  0
  2  3  1  0
  2  5  2  0
  3 15  1  0
  4  6  2  0
  4 16  1  0
  5  6  1  0
  5 17  1  0
  6 26  1  0
  7  9  1  0
  7 18  1  0
  8 10  1  0
  8 18  1  0
  9 19  1  0
 10 19  1  0
 11 13  1  0
 11 20  1  0
 12 14  1  0
 12 20  1  0
 13 25  1  0
 14 25  1  0
 18 26  1  0
 19 27  1  0
 20 27  1  0
 21 26  2  0
 22 26  2  0
 23 27  2  0
 24 27  2  0
M  END
>  <washed_aromatic_smiles>  (555) 
Cc1cc(c(c(c1)C)S(=O)(=O)N2CCN(CC2)S(=O)(=O)N3CCOCC3)C

>  <name>  (555) 
neg66236

$$$$
neg24599
     RDKit          3D

 26 28  0  0  0  0  0  0  0  0999 V2000
    5.4230   11.3420   58.5210 C   0  0  0  0  0  0  0  0  0  0  0  0
    5.4470   12.3620   57.5820 C   0  0  0  0  0  0  0  0  0  0  0  0
    5.3880   10.0230   58.1150 C   0  0  0  0  0  0  0  0  0  0  0  0
    5.1730   12.0800   56.2290 C   0  0  0  0  0  0  0  0  0  0  0  0
    5.3560    9.7310   56.7550 C   0  0  0  0  0  0  0  0  0  0  0  0
    5.1220   10.7320   55.7800 C   0  0  0  0  0  0  0  0  0  0  0  0
    2.6590    6.5590   51.0460 C   0  0  0  0  0  0  0  0  0  0  0  0
    2.0980    3.0090   50.1570 C   0  0  0  0  0  0  0  0  0  0  0  0
    2.2620    3.7190   48.8140 C   0  0  0  0  0  0  0  0  0  0  0  0
    2.9680    6.6880   53.6030 C   0  0  0  0  0  0  0  0  0  0  0  0
    1.5540    8.3460   52.7180 C   0  0  0  0  0  0  0  0  0  0  0  0
    1.9570    4.1640   51.1480 C   0  0  0  0  0  0  0  0  0  0  0  0
    3.0410    4.9700   49.2010 C   0  0  0  0  0  0  0  0  0  0  0  0
    3.9640    7.7650   54.0230 C   0  0  0  0  0  0  0  0  0  0  0  0
    2.7330    9.3340   52.7120 C   0  0  0  0  0  0  0  0  0  0  0  0
    2.0240    6.9100   52.4290 C   0  0  0  0  0  0  0  0  0  0  0  0
    5.9370   13.7110   58.0960 C   0  0  0  0  0  0  0  0  0  0  0  0
    5.5460    8.9110   59.1450 C   0  0  0  0  0  0  0  0  0  0  0  0
    5.0070   13.2430   55.2590 C   0  0  0  0  0  0  0  0  0  0  0  0
    5.7810    8.3250   56.4370 C   0  0  0  0  0  0  0  0  0  0  0  0
    2.5900    5.3100   50.5440 N   0  0  0  0  0  0  0  0  0  0  0  0
    3.6610    9.1810   53.8300 N   0  0  0  0  0  0  0  0  0  0  0  0
    3.2660    7.3960   50.3980 O   0  0  0  0  0  0  0  0  0  0  0  0
    4.5530   11.4650   53.2390 O   0  0  0  0  0  0  0  0  0  0  0  0
    6.1480    9.6970   53.5420 O   0  0  0  0  0  0  0  0  0  0  0  0
    4.9260   10.2980   53.9650 S   0  0  0  0  0  0  0  0  0  0  0  0
  1  2  2  0
  1  3  1  0
  2  4  1  0
  2 17  1  0
  3  5  2  0
  3 18  1  0
  4  6  2  0
  4 19  1  0
  5  6  1  0
  5 20  1  0
  6 26  1  0
  7 16  1  0
  7 21  1  0
  7 23  2  0
  8  9  1  0
  8 12  1  0
  9 13  1  0
 10 14  1  0
 10 16  1  0
 11 15  1  0
 11 16  1  0
 12 21  1  0
 13 21  1  0
 14 22  1  0
 15 22  1  0
 22 26  1  0
 24 26  2  0
 25 26  2  0
M  END
>  <washed_aromatic_smiles>  (556) 
Cc1cc(c(c(c1C)S(=O)(=O)N2CCC(CC2)C(=O)N3CCCC3)C)C

>  <name>  (556) 
neg24599

$$$$
neg134961
     RDKit          3D

 26 28  0  0  0  0  0  0  0  0999 V2000
    1.6970    3.1640   49.8570 C   0  0  0  0  0  0  0  0  0  0  0  0
    2.7550    2.3750   51.8920 C   0  0  0  0  0  0  0  0  0  0  0  0
    1.4770    1.8480   49.4650 C   0  0  0  0  0  0  0  0  0  0  0  0
    2.5400    1.0610   51.4960 C   0  0  0  0  0  0  0  0  0  0  0  0
    6.1710    8.9910   54.6770 C   0  0  0  0  0  0  0  0  0  0  0  0
    5.2850    8.6670   55.7010 C   0  0  0  0  0  0  0  0  0  0  0  0
    5.7700    9.8930   53.7060 C   0  0  0  0  0  0  0  0  0  0  0  0
    3.9250    8.9290   55.5210 C   0  0  0  0  0  0  0  0  0  0  0  0
    4.4300   10.1940   53.6050 C   0  0  0  0  0  0  0  0  0  0  0  0
    2.2660    3.4380   51.1130 C   0  0  0  0  0  0  0  0  0  0  0  0
    1.8570    0.8080   50.3110 C   0  0  0  0  0  0  0  0  0  0  0  0
    3.4850    9.4150   54.2820 C   0  0  0  0  0  0  0  0  0  0  0  0
    1.4600    5.8080   51.0450 C   0  0  0  0  0  0  0  0  0  0  0  0
    3.3900    5.3450   52.3620 C   0  0  0  0  0  0  0  0  0  0  0  0
    1.0490    6.8470   52.0850 C   0  0  0  0  0  0  0  0  0  0  0  0
    3.1680    6.6060   53.2140 C   0  0  0  0  0  0  0  0  0  0  0  0
    5.8040    8.0950   57.0170 C   0  0  0  0  0  0  0  0  0  0  0  0
    6.7200   10.6590   52.8160 C   0  0  0  0  0  0  0  0  0  0  0  0
    3.0180    8.7780   56.7150 C   0  0  0  0  0  0  0  0  0  0  0  0
    4.1060   11.5280   53.0120 C   0  0  0  0  0  0  0  0  0  0  0  0
    2.2340    4.7570   51.6710 N   0  0  0  0  0  0  0  0  0  0  0  0
    2.2030    7.5320   52.6750 N   0  0  0  0  0  0  0  0  0  0  0  0
    0.9490    8.5470   54.5620 O   0  0  0  0  0  0  0  0  0  0  0  0
    1.4020    9.8430   52.5880 O   0  0  0  0  0  0  0  0  0  0  0  0
    1.5340   -0.4850   49.9920 O   0  0  0  0  0  0  0  0  0  0  0  0
    1.8650    8.8920   53.5280 S   0  0  0  0  0  0  0  0  0  0  0  0
  1  3  2  0
  1 10  1  0
  2  4  1  0
  2 10  2  0
  3 11  1  0
  4 11  2  0
  5  6  2  0
  5  7  1  0
  6  8  1  0
  6 17  1  0
  7  9  2  0
  7 18  1  0
  8 12  2  0
  8 19  1  0
  9 12  1  0
  9 20  1  0
 10 21  1  0
 11 25  1  0
 12 26  1  0
 13 15  1  0
 13 21  1  0
 14 16  1  0
 14 21  1  0
 15 22  1  0
 16 22  1  0
 22 26  1  0
 23 26  2  0
 24 26  2  0
M  END
>  <washed_aromatic_smiles>  (557) 
Cc1cc(c(c(c1C)S(=O)(=O)N2CCN(CC2)c3ccc(cc3)O)C)C

>  <name>  (557) 
neg134961

$$$$
neg3806
     RDKit          3D

 28 30  0  0  0  0  0  0  0  0999 V2000
    1.1170    7.4390   52.3430 C   0  0  0  0  0  0  0  0  0  0  0  0
    1.3330    6.1550   51.8570 C   0  0  0  0  0  0  0  0  0  0  0  0
    2.0810    8.0780   53.1160 C   0  0  0  0  0  0  0  0  0  0  0  0
    3.4980    6.1500   52.9060 C   0  0  0  0  0  0  0  0  0  0  0  0
    3.0770   -0.1760   54.5490 C   0  0  0  0  0  0  0  0  0  0  0  0
    2.8170    0.8770   51.9710 C   0  0  0  0  0  0  0  0  0  0  0  0
    2.5130    5.4700   52.1610 C   0  0  0  0  0  0  0  0  0  0  0  0
    2.9530    1.2020   54.3780 C   0  0  0  0  0  0  0  0  0  0  0  0
    2.9160    1.7370   53.0570 C   0  0  0  0  0  0  0  0  0  0  0  0
    3.0770   -1.0300   53.4600 C   0  0  0  0  0  0  0  0  0  0  0  0
    2.7940   -0.5010   52.1830 C   0  0  0  0  0  0  0  0  0  0  0  0
    3.2860    7.4460   53.4170 C   0  0  0  0  0  0  0  0  0  0  0  0
    2.6300    4.0410   51.7920 C   0  0  0  0  0  0  0  0  0  0  0  0
    5.1110   12.1690   54.8200 C   0  0  0  0  0  0  0  0  0  0  0  0
    5.0150   11.9990   53.3110 C   0  0  0  0  0  0  0  0  0  0  0  0
    4.6800   10.8200   55.4080 C   0  0  0  0  0  0  0  0  0  0  0  0
    4.9350   10.4900   53.1010 C   0  0  0  0  0  0  0  0  0  0  0  0
    2.8290    1.9780   55.6830 C   0  0  0  0  0  0  0  0  0  0  0  0
    4.8580   -3.7830   53.9770 C   0  0  0  0  0  0  0  0  0  0  0  0
    1.4420   -0.7830   50.1580 C   0  0  0  0  0  0  0  0  0  0  0  0
    4.3400    9.9200   54.2990 N   0  0  0  0  0  0  0  0  0  0  0  0
    3.0100    3.1670   52.8220 N   0  0  0  0  0  0  0  0  0  0  0  0
    2.3250    3.5980   50.6920 O   0  0  0  0  0  0  0  0  0  0  0  0
    4.1010    7.9600   55.8610 O   0  0  0  0  0  0  0  0  0  0  0  0
    5.8070    7.9260   54.1480 O   0  0  0  0  0  0  0  0  0  0  0  0
    3.4870   -2.4030   53.7330 O   0  0  0  0  0  0  0  0  0  0  0  0
    2.4320   -1.2940   51.1200 O   0  0  0  0  0  0  0  0  0  0  0  0
    4.4820    8.2820   54.5240 S   0  0  0  0  0  0  0  0  0  0  0  0
  1  2  2  0
  1  3  1  0
  2  7  1  0
  3 12  2  0
  4  7  2  0
  4 12  1  0
  5  8  2  0
  5 10  1  0
  6  9  2  0
  6 11  1  0
  7 13  1  0
  8  9  1  0
  8 18  1  0
  9 22  1  0
 10 11  2  0
 10 26  1  0
 11 27  1  0
 12 28  1  0
 13 22  1  0
 13 23  2  0
 14 15  1  0
 14 16  1  0
 15 17  1  0
 16 21  1  0
 17 21  1  0
 19 26  1  0
 20 27  1  0
 21 28  1  0
 24 28  2  0
 25 28  2  0
M  END
>  <washed_aromatic_smiles>  (558) 
Cc1cc(c(cc1NC(=O)c2cccc(c2)S(=O)(=O)N3CCCC3)OC)OC

>  <name>  (558) 
neg3806

$$$$
neg303490
     RDKit          3D

 26 27  0  0  0  0  0  0  0  0999 V2000
    3.5890    8.9300   52.3760 C   0  0  0  0  0  0  0  0  0  0  0  0
    2.0570    7.7490   53.7920 C   0  0  0  0  0  0  0  0  0  0  0  0
    1.1300    2.8230   48.0530 C   0  0  0  0  0  0  0  0  0  0  0  0
    2.7650    7.8220   52.5900 C   0  0  0  0  0  0  0  0  0  0  0  0
    1.4380    2.8630   49.4200 C   0  0  0  0  0  0  0  0  0  0  0  0
    3.9390    9.7660   53.4220 C   0  0  0  0  0  0  0  0  0  0  0  0
    2.3160    8.6830   54.7960 C   0  0  0  0  0  0  0  0  0  0  0  0
    3.3950    9.5690   54.6840 C   0  0  0  0  0  0  0  0  0  0  0  0
    0.8790    1.5420   47.7050 C   0  0  0  0  0  0  0  0  0  0  0  0
    1.4090    1.5610   49.8830 C   0  0  0  0  0  0  0  0  0  0  0  0
    1.5850    4.1200   50.1150 C   0  0  0  0  0  0  0  0  0  0  0  0
    2.7250    6.7560   51.6000 C   0  0  0  0  0  0  0  0  0  0  0  0
    0.4440    0.9880   46.3800 C   0  0  0  0  0  0  0  0  0  0  0  0
    1.6090    0.9420   51.2560 C   0  0  0  0  0  0  0  0  0  0  0  0
    0.7620   -0.6630   48.8600 C   0  0  0  0  0  0  0  0  0  0  0  0
    6.1980   10.5190   53.1730 C   0  0  0  0  0  0  0  0  0  0  0  0
    0.0190    8.5440   55.6120 C   0  0  0  0  0  0  0  0  0  0  0  0
    3.4730   10.3930   57.0820 C   0  0  0  0  0  0  0  0  0  0  0  0
    2.6080    4.3570   51.1890 C   0  0  0  0  0  0  0  0  0  0  0  0
    1.0400    0.7710   48.8280 N   0  0  0  0  0  0  0  0  0  0  0  0
    0.9120    5.0650   49.7750 O   0  0  0  0  0  0  0  0  0  0  0  0
    3.1260    6.8720   50.4510 O   0  0  0  0  0  0  0  0  0  0  0  0
    4.8000   10.8070   53.1870 O   0  0  0  0  0  0  0  0  0  0  0  0
    1.4430    8.8130   55.8340 O   0  0  0  0  0  0  0  0  0  0  0  0
    3.9450   10.3010   55.7310 O   0  0  0  0  0  0  0  0  0  0  0  0
    2.3500    5.5240   52.0210 O   0  0  0  0  0  0  0  0  0  0  0  0
  1  4  2  0
  1  6  1  0
  2  4  1  0
  2  7  2  0
  3  5  1  0
  3  9  2  0
  4 12  1  0
  5 10  2  0
  5 11  1  0
  6  8  2  0
  6 23  1  0
  7  8  1  0
  7 24  1  0
  8 25  1  0
  9 13  1  0
  9 20  1  0
 10 14  1  0
 10 20  1  0
 11 19  1  0
 11 21  2  0
 12 22  2  0
 12 26  1  0
 15 20  1  0
 16 23  1  0
 17 24  1  0
 18 25  1  0
 19 26  1  0
M  END
>  <washed_aromatic_smiles>  (559) 
Cc1cc(c(n1C)C)C(=O)COC(=O)c2cc(c(c(c2)OC)OC)OC

>  <name>  (559) 
neg303490

$$$$
neg133306
     RDKit          3D

 26 28  0  0  0  0  0  0  0  0999 V2000
    3.1120    6.4140   50.2820 C   0  0  0  0  0  0  0  0  0  0  0  0
    1.3370    5.9740   51.8410 C   0  0  0  0  0  0  0  0  0  0  0  0
    2.8800    5.2010   49.6520 C   0  0  0  0  0  0  0  0  0  0  0  0
    1.1020    4.7750   51.1860 C   0  0  0  0  0  0  0  0  0  0  0  0
    3.6130    1.9320   56.3310 C   0  0  0  0  0  0  0  0  0  0  0  0
    3.6420    0.6260   55.8120 C   0  0  0  0  0  0  0  0  0  0  0  0
    2.3880    6.7710   51.4140 C   0  0  0  0  0  0  0  0  0  0  0  0
    1.8920    4.3390   50.1250 C   0  0  0  0  0  0  0  0  0  0  0  0
    4.6580    2.0580   57.1870 C   0  0  0  0  0  0  0  0  0  0  0  0
    4.6770    0.0140   56.4770 C   0  0  0  0  0  0  0  0  0  0  0  0
    2.7050    0.0430   54.8320 C   0  0  0  0  0  0  0  0  0  0  0  0
    3.4830    1.0300   52.7440 C   0  0  0  0  0  0  0  0  0  0  0  0
    1.3560    0.0210   52.6690 C   0  0  0  0  0  0  0  0  0  0  0  0
    3.0390    2.0950   51.7720 C   0  0  0  0  0  0  0  0  0  0  0  0
    0.8870    0.9820   51.5250 C   0  0  0  0  0  0  0  0  0  0  0  0
    5.2350    3.2210   57.9650 C   0  0  0  0  0  0  0  0  0  0  0  0
    5.2720   -1.3680   56.5100 C   0  0  0  0  0  0  0  0  0  0  0  0
    1.9820    8.5070   53.1640 C   0  0  0  0  0  0  0  0  0  0  0  0
    2.4080    0.5740   53.5720 N   0  0  0  0  0  0  0  0  0  0  0  0
    2.0050    1.6860   50.8450 N   0  0  0  0  0  0  0  0  0  0  0  0
    2.1040   -0.9670   55.1060 O   0  0  0  0  0  0  0  0  0  0  0  0
    0.6030    2.3820   48.8280 O   0  0  0  0  0  0  0  0  0  0  0  0
    2.9880    2.5110   48.6810 O   0  0  0  0  0  0  0  0  0  0  0  0
    5.2840    0.8850   57.2890 O   0  0  0  0  0  0  0  0  0  0  0  0
    2.7420    7.9200   52.0870 O   0  0  0  0  0  0  0  0  0  0  0  0
    1.8340    2.6500   49.4840 S   0  0  0  0  0  0  0  0  0  0  0  0
  1  3  2  0
  1  7  1  0
  2  4  1  0
  2  7  2  0
  3  8  1  0
  4  8  2  0
  5  6  1  0
  5  9  2  0
  6 10  2  0
  6 11  1  0
  7 25  1  0
  8 26  1  0
  9 16  1  0
  9 24  1  0
 10 17  1  0
 10 24  1  0
 11 19  1  0
 11 21  2  0
 12 14  1  0
 12 19  1  0
 13 15  1  0
 13 19  1  0
 14 20  1  0
 15 20  1  0
 18 25  1  0
 20 26  1  0
 22 26  2  0
 23 26  2  0
M  END
>  <washed_aromatic_smiles>  (560) 
Cc1cc(c(o1)C)C(=O)N2CCN(CC2)S(=O)(=O)c3ccc(cc3)OC

>  <name>  (560) 
neg133306

$$$$
neg88436
     RDKit          3D

 26 27  0  0  0  0  0  0  0  0999 V2000
    1.2110    1.4040   48.9550 C   0  0  0  0  0  0  0  0  0  0  0  0
    0.6320    1.0770   51.2470 C   0  0  0  0  0  0  0  0  0  0  0  0
    0.2050    0.5130   48.5730 C   0  0  0  0  0  0  0  0  0  0  0  0
   -0.4090    0.2370   50.8620 C   0  0  0  0  0  0  0  0  0  0  0  0
    4.1150    9.3820   53.3320 C   0  0  0  0  0  0  0  0  0  0  0  0
    3.6790    8.4530   55.5100 C   0  0  0  0  0  0  0  0  0  0  0  0
    4.9820   10.4630   55.3000 C   0  0  0  0  0  0  0  0  0  0  0  0
    3.5200    8.3930   54.1220 C   0  0  0  0  0  0  0  0  0  0  0  0
    1.3940    1.7430   50.2920 C   0  0  0  0  0  0  0  0  0  0  0  0
    4.8470   10.4130   53.9140 C   0  0  0  0  0  0  0  0  0  0  0  0
    4.4070    9.4810   56.1020 C   0  0  0  0  0  0  0  0  0  0  0  0
   -0.6930   -0.0080   49.5160 C   0  0  0  0  0  0  0  0  0  0  0  0
    2.7200    7.3410   53.5010 C   0  0  0  0  0  0  0  0  0  0  0  0
    1.5700    5.3800   51.2230 C   0  0  0  0  0  0  0  0  0  0  0  0
    5.4620   11.4880   53.0480 C   0  0  0  0  0  0  0  0  0  0  0  0
    4.5530    9.5500   57.6060 C   0  0  0  0  0  0  0  0  0  0  0  0
    2.2640    2.9360   50.6890 C   0  0  0  0  0  0  0  0  0  0  0  0
    2.9450    5.9930   51.3850 C   0  0  0  0  0  0  0  0  0  0  0  0
   -2.8910   -2.0960   48.8150 N   0  0  0  0  0  0  0  0  0  0  0  0
    3.3790    6.3960   52.7440 N   0  0  0  0  0  0  0  0  0  0  0  0
    1.3890    4.0880   50.9190 N   0  0  0  0  0  0  0  0  0  0  0  0
    1.5070    7.2750   53.6500 O   0  0  0  0  0  0  0  0  0  0  0  0
    0.5650    6.0750   51.3230 O   0  0  0  0  0  0  0  0  0  0  0  0
   -3.2920   -0.1010   49.9270 O   0  0  0  0  0  0  0  0  0  0  0  0
   -2.3750    0.0560   47.6530 O   0  0  0  0  0  0  0  0  0  0  0  0
   -2.4040   -0.5220   48.9330 S   0  0  0  0  0  0  0  0  0  0  0  0
  1  3  2  0
  1  9  1  0
  2  4  1  0
  2  9  2  0
  3 12  1  0
  4 12  2  0
  5  8  2  0
  5 10  1  0
  6  8  1  0
  6 11  2  0
  7 10  2  0
  7 11  1  0
  8 13  1  0
  9 17  1  0
 10 15  1  0
 11 16  1  0
 12 26  1  0
 13 20  1  0
 13 22  2  0
 14 18  1  0
 14 21  1  0
 14 23  2  0
 17 21  1  0
 18 20  1  0
 19 26  1  0
 24 26  2  0
 25 26  2  0
M  END
>  <washed_aromatic_smiles>  (561) 
Cc1cc(cc(c1)C(=O)NCC(=O)NCc2ccc(cc2)S(=O)(=O)N)C

>  <name>  (561) 
neg88436

$$$$
neg139083
     RDKit          3D

 28 29  0  0  1  0  0  0  0  0999 V2000
    3.1550    8.0960   54.7850 C   0  0  0  0  0  0  0  0  0  0  0  0
    3.8970    9.2880   52.8450 C   0  0  0  0  0  0  0  0  0  0  0  0
    2.6710   -0.5190   52.9320 C   0  0  0  0  0  0  0  0  0  0  0  0
    2.7990    1.8410   53.2760 C   0  0  0  0  0  0  0  0  0  0  0  0
    2.3140    0.9850   51.0760 C   0  0  0  0  0  0  0  0  0  0  0  0
    4.6600    9.9770   55.0430 C   0  0  0  0  0  0  0  0  0  0  0  0
    3.1040    8.2850   53.4040 C   0  0  0  0  0  0  0  0  0  0  0  0
    2.8910    0.5570   53.7830 C   0  0  0  0  0  0  0  0  0  0  0  0
    2.3650   -0.2890   51.5920 C   0  0  0  0  0  0  0  0  0  0  0  0
    2.5190    2.0480   51.9260 C   0  0  0  0  0  0  0  0  0  0  0  0
    3.9300    8.9230   55.5940 C   0  0  0  0  0  0  0  0  0  0  0  0
    4.6300   10.1500   53.6590 C   0  0  0  0  0  0  0  0  0  0  0  0
    2.2370    7.4320   52.5870 C   0  0  0  0  0  0  0  0  0  0  0  0
    2.6440    4.5440   51.7720 C   0  0  0  0  0  0  0  0  0  0  0  0
    3.1920    0.3600   55.2500 C   0  0  0  0  0  0  0  0  0  0  0  0
    2.0590   -1.3930   50.6620 C   0  0  0  0  0  0  0  0  0  0  0  0
    3.6670    6.3410   48.7810 C   0  0  0  0  0  0  0  0  0  0  0  0
    1.7960    4.5930   48.4880 C   0  0  0  0  0  0  0  0  0  0  0  0
    4.8110    9.3310   57.8950 C   0  0  0  0  0  0  0  0  0  0  0  0
    5.4600   12.4670   53.7070 C   0  0  0  0  0  0  0  0  0  0  0  0
    2.2640    5.6540   50.8330 C   0  0  2  0  0  0  0  0  0  0  0  0
    2.8230    5.2670   49.4280 C   0  0  0  0  0  0  0  0  0  0  0  0
    2.2970    3.2960   51.3410 N   0  0  0  0  0  0  0  0  0  0  0  0
    2.7220    6.9470   51.3940 N   0  0  0  0  0  0  0  0  0  0  0  0
    1.1140    7.0860   52.9500 O   0  0  0  0  0  0  0  0  0  0  0  0
    3.3400    4.7230   52.7450 O   0  0  0  0  0  0  0  0  0  0  0  0
    3.9520    8.6520   56.9500 O   0  0  0  0  0  0  0  0  0  0  0  0
    5.3130   11.1840   53.0560 O   0  0  0  0  0  0  0  0  0  0  0  0
  1  7  2  0
  1 11  1  0
  2  7  1  0
  2 12  2  0
  3  8  2  0
  3  9  1  0
  4  8  1  0
  4 10  2  0
  5  9  2  0
  5 10  1  0
  6 11  2  0
  6 12  1  0
  7 13  1  0
  8 15  1  0
  9 16  1  0
 10 23  1  0
 11 27  1  0
 12 28  1  0
 13 24  1  0
 13 25  2  0
 14 21  1  0
 14 23  1  0
 14 26  2  0
 17 22  1  0
 18 22  1  0
 19 27  1  0
 20 28  1  0
 21 22  1  0
 21 24  1  1
M  END
>  <washed_aromatic_smiles>  (562) 
Cc1cc(cc(c1)NC(=O)[C@H](C(C)C)NC(=O)c2cc(cc(c2)OC)OC)C

>  <name>  (562) 
neg139083

$$$$
neg174484
     RDKit          3D

 27 29  0  0  0  0  0  0  0  0999 V2000
    1.5330    3.9100   50.7480 C   0  0  0  0  0  0  0  0  0  0  0  0
    3.0260    4.4110   48.9420 C   0  0  0  0  0  0  0  0  0  0  0  0
    1.8420    5.1050   51.3720 C   0  0  0  0  0  0  0  0  0  0  0  0
    3.3530    5.6170   49.5590 C   0  0  0  0  0  0  0  0  0  0  0  0
    5.2970   10.5560   57.5780 C   0  0  0  0  0  0  0  0  0  0  0  0
    4.7230    8.6090   56.2790 C   0  0  0  0  0  0  0  0  0  0  0  0
    4.7220   10.8060   55.2540 C   0  0  0  0  0  0  0  0  0  0  0  0
    2.0850    3.5480   49.5220 C   0  0  0  0  0  0  0  0  0  0  0  0
    5.1300    9.1750   57.4840 C   0  0  0  0  0  0  0  0  0  0  0  0
    5.1170   11.3720   56.4610 C   0  0  0  0  0  0  0  0  0  0  0  0
    4.4790    9.4340   55.1740 C   0  0  0  0  0  0  0  0  0  0  0  0
    2.7370    5.9720   50.7620 C   0  0  0  0  0  0  0  0  0  0  0  0
    1.5860    2.3660   48.8070 C   0  0  0  0  0  0  0  0  0  0  0  0
    3.1670    7.8550   53.7120 C   0  0  0  0  0  0  0  0  0  0  0  0
    1.4990    0.7860   50.7930 C   0  0  0  0  0  0  0  0  0  0  0  0
    1.0650   -0.0690   48.6550 C   0  0  0  0  0  0  0  0  0  0  0  0
    0.0120    0.6080   51.1790 C   0  0  0  0  0  0  0  0  0  0  0  0
   -0.4390   -0.1140   48.8180 C   0  0  0  0  0  0  0  0  0  0  0  0
    5.4240    8.2920   58.6780 C   0  0  0  0  0  0  0  0  0  0  0  0
    5.3720   12.8600   56.5430 C   0  0  0  0  0  0  0  0  0  0  0  0
    2.3520    7.8590   52.4420 C   0  0  0  0  0  0  0  0  0  0  0  0
    1.6740    1.0650   49.3710 N   0  0  0  0  0  0  0  0  0  0  0  0
    3.9440    8.9720   53.9350 N   0  0  0  0  0  0  0  0  0  0  0  0
    3.0870    6.9590   54.5230 O   0  0  0  0  0  0  0  0  0  0  0  0
   -0.8990    0.3900   50.0860 O   0  0  0  0  0  0  0  0  0  0  0  0
    3.0000    7.2030   51.3120 O   0  0  0  0  0  0  0  0  0  0  0  0
    0.8750    2.5320   47.2970 S   0  0  0  0  0  0  0  0  0  0  0  0
  1  3  2  0
  1  8  1  0
  2  4  1  0
  2  8  2  0
  3 12  1  0
  4 12  2  0
  5  9  2  0
  5 10  1  0
  6  9  1  0
  6 11  2  0
  7 10  2  0
  7 11  1  0
  8 13  1  0
  9 19  1  0
 10 20  1  0
 11 23  1  0
 12 26  1  0
 13 22  1  0
 13 27  2  0
 14 21  1  0
 14 23  1  0
 14 24  2  0
 15 17  1  0
 15 22  1  0
 16 18  1  0
 16 22  1  0
 17 25  1  0
 18 25  1  0
 21 26  1  0
M  END
>  <washed_aromatic_smiles>  (563) 
Cc1cc(cc(c1)NC(=O)COc2ccc(cc2)C(=S)N3CCOCC3)C

>  <name>  (563) 
neg174484

$$$$
neg321767
     RDKit          3D

 29 31  0  0  0  0  0  0  0  0999 V2000
    4.9330   11.0060   54.6190 C   0  0  0  0  0  0  0  0  0  0  0  0
    3.5570    9.8630   56.2610 C   0  0  0  0  0  0  0  0  0  0  0  0
    4.5300   10.0910   53.6530 C   0  0  0  0  0  0  0  0  0  0  0  0
    3.1630    8.9510   55.2960 C   0  0  0  0  0  0  0  0  0  0  0  0
    2.0010    1.8240   49.6260 C   0  0  0  0  0  0  0  0  0  0  0  0
    1.9880    4.2210   49.8730 C   0  0  0  0  0  0  0  0  0  0  0  0
    2.7320    2.8090   51.6940 C   0  0  0  0  0  0  0  0  0  0  0  0
    1.7620    3.0920   49.0990 C   0  0  0  0  0  0  0  0  0  0  0  0
    2.4970    1.6760   50.9200 C   0  0  0  0  0  0  0  0  0  0  0  0
    4.4540   10.8960   55.9380 C   0  0  0  0  0  0  0  0  0  0  0  0
    3.6410    9.0690   53.9910 C   0  0  0  0  0  0  0  0  0  0  0  0
    2.4530    4.0750   51.1780 C   0  0  0  0  0  0  0  0  0  0  0  0
    2.1050    7.4370   52.8490 C   0  0  0  0  0  0  0  0  0  0  0  0
    5.1400   11.1700   58.2680 C   0  0  0  0  0  0  0  0  0  0  0  0
    5.7020   12.9560   56.6090 C   0  0  0  0  0  0  0  0  0  0  0  0
    5.8690   12.0090   59.3440 C   0  0  0  0  0  0  0  0  0  0  0  0
    6.0340   13.8130   57.8340 C   0  0  0  0  0  0  0  0  0  0  0  0
    1.2770    3.2520   47.6860 C   0  0  0  0  0  0  0  0  0  0  0  0
    2.7890    0.2960   51.4700 C   0  0  0  0  0  0  0  0  0  0  0  0
    6.7910   14.8240   60.9720 C   0  0  0  0  0  0  0  0  0  0  0  0
    2.0500    6.4740   51.6870 C   0  0  0  0  0  0  0  0  0  0  0  0
    4.8480   11.8090   56.9620 N   0  0  0  0  0  0  0  0  0  0  0  0
    6.7220   13.1010   58.8610 N   0  0  0  0  0  0  0  0  0  0  0  0
    3.2740    8.1490   52.9730 N   0  0  0  0  0  0  0  0  0  0  0  0
    1.1750    7.5800   53.6250 O   0  0  0  0  0  0  0  0  0  0  0  0
    8.5330   14.8750   59.0360 O   0  0  0  0  0  0  0  0  0  0  0  0
    8.6140   13.0160   60.5530 O   0  0  0  0  0  0  0  0  0  0  0  0
    2.6300    5.1730   51.9980 O   0  0  0  0  0  0  0  0  0  0  0  0
    7.8150   13.9310   59.8190 S   0  0  0  0  0  0  0  0  0  0  0  0
  1  3  2  0
  1 10  1  0
  2  4  1  0
  2 10  2  0
  3 11  1  0
  4 11  2  0
  5  8  2  0
  5  9  1  0
  6  8  1  0
  6 12  2  0
  7  9  2  0
  7 12  1  0
  8 18  1  0
  9 19  1  0
 10 22  1  0
 11 24  1  0
 12 28  1  0
 13 21  1  0
 13 24  1  0
 13 25  2  0
 14 16  1  0
 14 22  1  0
 15 17  1  0
 15 22  1  0
 16 23  1  0
 17 23  1  0
 20 29  1  0
 21 28  1  0
 23 29  1  0
 26 29  2  0
 27 29  2  0
M  END
>  <washed_aromatic_smiles>  (564) 
Cc1cc(cc(c1)OCC(=O)Nc2ccc(cc2)N3CCN(CC3)S(=O)(=O)C)C

>  <name>  (564) 
neg321767

$$$$
neg280412
     RDKit          3D

 26 28  0  0  0  0  0  0  0  0999 V2000
    5.6650   12.9380   58.4260 C   0  0  0  0  0  0  0  0  0  0  0  0
    5.5500   11.6190   58.8460 C   0  0  0  0  0  0  0  0  0  0  0  0
    5.4190   13.2650   57.0980 C   0  0  0  0  0  0  0  0  0  0  0  0
    5.2480   10.6140   57.9390 C   0  0  0  0  0  0  0  0  0  0  0  0
    5.1290   12.2740   56.1730 C   0  0  0  0  0  0  0  0  0  0  0  0
   -3.4100    7.7830   60.9320 C   0  0  0  0  0  0  0  0  0  0  0  0
   -1.4300    7.9580   59.6290 C   0  0  0  0  0  0  0  0  0  0  0  0
   -3.5260    7.6830   58.5180 C   0  0  0  0  0  0  0  0  0  0  0  0
   -2.0590    7.8760   60.8740 C   0  0  0  0  0  0  0  0  0  0  0  0
   -4.1280    7.8490   59.7790 C   0  0  0  0  0  0  0  0  0  0  0  0
    5.0610   10.9460   56.5920 C   0  0  0  0  0  0  0  0  0  0  0  0
   -2.1260    7.7160   58.4590 C   0  0  0  0  0  0  0  0  0  0  0  0
    0.2380    8.5410   55.3760 C   0  0  0  0  0  0  0  0  0  0  0  0
    1.6960    8.6600   53.8680 C   0  0  0  0  0  0  0  0  0  0  0  0
    4.3910    8.7000   55.6980 C   0  0  0  0  0  0  0  0  0  0  0  0
   -1.4650    7.9990   62.2260 C   0  0  0  0  0  0  0  0  0  0  0  0
   -5.4510    8.4090   60.1110 C   0  0  0  0  0  0  0  0  0  0  0  0
   -0.3620    8.6160   56.8210 C   0  0  0  0  0  0  0  0  0  0  0  0
    4.2720    7.9600   54.3930 C   0  0  0  0  0  0  0  0  0  0  0  0
   -0.3490    8.6000   54.2450 N   0  0  0  0  0  0  0  0  0  0  0  0
    0.5750    8.6510   53.2500 N   0  0  0  0  0  0  0  0  0  0  0  0
    4.8430    9.9880   55.5790 N   0  0  0  0  0  0  0  0  0  0  0  0
    4.0530    8.2150   56.7630 O   0  0  0  0  0  0  0  0  0  0  0  0
    1.5440    8.5860   55.1800 O   0  0  0  0  0  0  0  0  0  0  0  0
   -1.3610    7.5670   57.2720 O   0  0  0  0  0  0  0  0  0  0  0  0
    3.2640    8.8060   53.1480 S   0  0  0  0  0  0  0  0  0  0  0  0
  1  2  2  0
  1  3  1  0
  2  4  1  0
  3  5  2  0
  4 11  2  0
  5 11  1  0
  6  9  2  0
  6 10  1  0
  7  9  1  0
  7 12  2  0
  8 10  2  0
  8 12  1  0
  9 16  1  0
 10 17  1  0
 11 22  1  0
 12 25  1  0
 13 18  1  0
 13 20  2  0
 13 24  1  0
 14 21  2  0
 14 24  1  0
 14 26  1  0
 15 19  1  0
 15 22  1  0
 15 23  2  0
 18 25  1  0
 19 26  1  0
 20 21  1  0
M  END
>  <washed_aromatic_smiles>  (565) 
Cc1cc(cc(c1)OCc2nnc(o2)SCC(=O)Nc3ccccc3)C

>  <name>  (565) 
neg280412

$$$$
neg68422
     RDKit          3D

 26 28  0  0  0  0  0  0  0  0999 V2000
    4.8150   10.5670   54.3910 C   0  0  0  0  0  0  0  0  0  0  0  0
    3.2630    9.5310   55.9380 C   0  0  0  0  0  0  0  0  0  0  0  0
    4.3870    9.7040   53.3900 C   0  0  0  0  0  0  0  0  0  0  0  0
    2.8370    8.6720   54.9310 C   0  0  0  0  0  0  0  0  0  0  0  0
    2.6090    2.4240   51.6620 C   0  0  0  0  0  0  0  0  0  0  0  0
    2.1800    1.2110   51.1400 C   0  0  0  0  0  0  0  0  0  0  0  0
    1.8420    3.5580   49.6630 C   0  0  0  0  0  0  0  0  0  0  0  0
    1.4440    2.3360   49.1180 C   0  0  0  0  0  0  0  0  0  0  0  0
    4.2610   10.4860   55.6830 C   0  0  0  0  0  0  0  0  0  0  0  0
    3.4060    8.7490   53.6590 C   0  0  0  0  0  0  0  0  0  0  0  0
    2.3830    3.6010   50.9500 C   0  0  0  0  0  0  0  0  0  0  0  0
    1.5560    1.1700   49.8910 C   0  0  0  0  0  0  0  0  0  0  0  0
    1.9740    7.0310   52.4350 C   0  0  0  0  0  0  0  0  0  0  0  0
    5.5190   12.5240   56.3700 C   0  0  0  0  0  0  0  0  0  0  0  0
    5.0190   10.7120   58.0100 C   0  0  0  0  0  0  0  0  0  0  0  0
    5.8110   13.4730   57.5400 C   0  0  0  0  0  0  0  0  0  0  0  0
    5.3980   11.6700   59.1600 C   0  0  0  0  0  0  0  0  0  0  0  0
    0.8810    2.2990   47.7120 C   0  0  0  0  0  0  0  0  0  0  0  0
    6.5760   13.8250   59.8710 C   0  0  0  0  0  0  0  0  0  0  0  0
    2.0310    6.0720   51.2590 C   0  0  0  0  0  0  0  0  0  0  0  0
    4.6600   11.3760   56.7330 N   0  0  0  0  0  0  0  0  0  0  0  0
    6.2930   12.8230   58.7850 N   0  0  0  0  0  0  0  0  0  0  0  0
    3.0700    7.8480   52.5990 N   0  0  0  0  0  0  0  0  0  0  0  0
    1.0190    7.0810   53.1880 O   0  0  0  0  0  0  0  0  0  0  0  0
    2.6810    4.8040   51.5820 O   0  0  0  0  0  0  0  0  0  0  0  0
    0.8950   -0.3430   49.3430 Cl  0  0  0  0  0  0  0  0  0  0  0  0
  1  3  2  0
  1  9  1  0
  2  4  1  0
  2  9  2  0
  3 10  1  0
  4 10  2  0
  5  6  2  0
  5 11  1  0
  6 12  1  0
  7  8  1  0
  7 11  2  0
  8 12  2  0
  8 18  1  0
  9 21  1  0
 10 23  1  0
 11 25  1  0
 12 26  1  0
 13 20  1  0
 13 23  1  0
 13 24  2  0
 14 16  1  0
 14 21  1  0
 15 17  1  0
 15 21  1  0
 16 22  1  0
 17 22  1  0
 19 22  1  0
 20 25  1  0
M  CHG  1  22   1
M  END
>  <washed_aromatic_smiles>  (566) 
Cc1cc(ccc1Cl)OCC(=O)Nc2ccc(cc2)N3CCN(CC3)C

>  <name>  (566) 
neg68422

$$$$
neg64362
     RDKit          3D

 25 27  0  0  0  0  0  0  0  0999 V2000
    2.9290   -1.3920   51.9540 C   0  0  0  0  0  0  0  0  0  0  0  0
    2.4090   -1.1780   50.6810 C   0  0  0  0  0  0  0  0  0  0  0  0
    1.0550    0.5490   51.5410 C   0  0  0  0  0  0  0  0  0  0  0  0
    1.6600    0.3490   52.7670 C   0  0  0  0  0  0  0  0  0  0  0  0
    2.6270   -0.5820   52.9840 C   0  0  0  0  0  0  0  0  0  0  0  0
    1.4700   -0.1960   50.4600 C   0  0  0  0  0  0  0  0  0  0  0  0
    1.4060    4.9350   50.3700 C   0  0  0  0  0  0  0  0  0  0  0  0
    2.7550    7.3060   52.6580 C   0  0  0  0  0  0  0  0  0  0  0  0
    1.2760    7.6170   52.8630 C   0  0  0  0  0  0  0  0  0  0  0  0
    3.1430    3.6200   49.1680 C   0  0  0  0  0  0  0  0  0  0  0  0
    1.3500    4.0930   47.8080 C   0  0  0  0  0  0  0  0  0  0  0  0
    2.8120    6.7060   51.2510 C   0  0  0  0  0  0  0  0  0  0  0  0
    0.5890    6.5100   52.0700 C   0  0  0  0  0  0  0  0  0  0  0  0
    2.6000    2.1930   49.4140 C   0  0  0  0  0  0  0  0  0  0  0  0
    0.6940    2.7060   47.9360 C   0  0  0  0  0  0  0  0  0  0  0  0
    2.1060    4.6830   49.0090 C   0  0  0  0  0  0  0  0  0  0  0  0
    1.0590    0.8300   53.9590 C   0  0  0  0  0  0  0  0  0  0  0  0
    3.5570   -0.0070   55.3200 C   0  0  0  0  0  0  0  0  0  0  0  0
    1.5150    6.1050   51.0160 N   0  0  0  0  0  0  0  0  0  0  0  0
    1.5030    1.6790   48.5440 N   0  0  0  0  0  0  0  0  0  0  0  0
    1.0310    3.9810   51.0220 O   0  0  0  0  0  0  0  0  0  0  0  0
    1.2440   -0.7860   47.9080 O   0  0  0  0  0  0  0  0  0  0  0  0
   -0.5960    0.2760   49.0120 O   0  0  0  0  0  0  0  0  0  0  0  0
    3.2240   -0.8790   54.2110 O   0  0  0  0  0  0  0  0  0  0  0  0
    0.8070    0.1770   48.8600 S   0  0  0  0  0  0  0  0  0  0  0  0
  1  2  2  0
  1  5  1  0
  2  6  1  0
  3  4  1  0
  3  6  2  0
  4  5  2  0
  4 17  1  0
  5 24  1  0
  6 25  1  0
  7 16  1  0
  7 19  1  0
  7 21  2  0
  8  9  1  0
  8 12  1  0
  9 13  1  0
 10 14  1  0
 10 16  1  0
 11 15  1  0
 11 16  1  0
 12 19  1  0
 13 19  1  0
 14 20  1  0
 15 20  1  0
 18 24  1  0
 20 25  1  0
 22 25  2  0
 23 25  2  0
M  END
>  <washed_aromatic_smiles>  (567) 
Cc1cc(ccc1OC)S(=O)(=O)N2CCC(CC2)C(=O)N3CCCC3

>  <name>  (567) 
neg64362

$$$$
neg68866
     RDKit          3D

 26 28  0  0  0  0  0  0  0  0999 V2000
    2.8220    3.6870   51.6510 C   0  0  0  0  0  0  0  0  0  0  0  0
    1.4310    5.0750   50.3080 C   0  0  0  0  0  0  0  0  0  0  0  0
    3.0360    4.7370   52.5020 C   0  0  0  0  0  0  0  0  0  0  0  0
    1.5290    6.0930   51.2570 C   0  0  0  0  0  0  0  0  0  0  0  0
    3.8960    9.6150   56.7060 C   0  0  0  0  0  0  0  0  0  0  0  0
    3.2790    8.9160   55.6760 C   0  0  0  0  0  0  0  0  0  0  0  0
    0.8170    0.9110   49.2160 C   0  0  0  0  0  0  0  0  0  0  0  0
    0.8730    2.5770   47.5170 C   0  0  0  0  0  0  0  0  0  0  0  0
    4.3430   10.3400   54.0580 C   0  0  0  0  0  0  0  0  0  0  0  0
   -0.0570    0.1850   48.4210 C   0  0  0  0  0  0  0  0  0  0  0  0
    0.0160    1.7920   46.7680 C   0  0  0  0  0  0  0  0  0  0  0  0
    2.1310    3.8750   50.4730 C   0  0  0  0  0  0  0  0  0  0  0  0
    1.3100    2.1170   48.7400 C   0  0  0  0  0  0  0  0  0  0  0  0
    4.9400   11.0800   55.0750 C   0  0  0  0  0  0  0  0  0  0  0  0
    2.4180    5.9810   52.3610 C   0  0  0  0  0  0  0  0  0  0  0  0
    4.7100   10.7090   56.4020 C   0  0  0  0  0  0  0  0  0  0  0  0
    3.4750    9.2820   54.3490 C   0  0  0  0  0  0  0  0  0  0  0  0
    5.7530   12.3090   54.7200 C   0  0  0  0  0  0  0  0  0  0  0  0
    5.1270   11.2080   58.8050 C   0  0  0  0  0  0  0  0  0  0  0  0
    2.4170    2.8430   49.4150 C   0  0  0  0  0  0  0  0  0  0  0  0
   -0.4300    0.6280   47.2240 N   0  0  0  0  0  0  0  0  0  0  0  0
    2.7510    6.9120   53.2610 N   0  0  0  0  0  0  0  0  0  0  0  0
    3.2710    8.8220   51.8190 O   0  0  0  0  0  0  0  0  0  0  0  0
    1.2000    8.8500   53.1250 O   0  0  0  0  0  0  0  0  0  0  0  0
    5.2900   11.4660   57.4000 O   0  0  0  0  0  0  0  0  0  0  0  0
    2.5840    8.4800   53.0170 S   0  0  2  0  0  0  0  0  0  0  0  0
  1  3  2  0
  1 12  1  0
  2  4  1  0
  2 12  2  0
  3 15  1  0
  4 15  2  0
  5  6  2  0
  5 16  1  0
  6 17  1  0
  7 10  2  0
  7 13  1  0
  8 11  1  0
  8 13  2  0
  9 14  1  0
  9 17  2  0
 10 21  1  0
 11 21  2  0
 12 20  1  0
 13 20  1  0
 14 16  2  0
 14 18  1  0
 15 22  1  0
 16 25  1  0
 17 26  1  0
 19 25  1  0
 22 26  2  0
 23 26  2  0
 26 24  1  6
M  CHG  1  24  -1
M  END
>  <washed_aromatic_smiles>  (568) 
Cc1cc(ccc1OC)S(=O)(=O)Nc2ccc(cc2)Cc3ccncc3

>  <name>  (568) 
neg68866

$$$$
neg259201
     RDKit          3D

 30 32  0  0  0  0  0  0  0  0999 V2000
   -0.0440    1.4960   47.2330 C   0  0  0  0  0  0  0  0  0  0  0  0
    1.0280   -0.5940   47.7920 C   0  0  0  0  0  0  0  0  0  0  0  0
    2.9110    2.9740   52.4910 C   0  0  0  0  0  0  0  0  0  0  0  0
    2.1520    4.0860   50.5000 C   0  0  0  0  0  0  0  0  0  0  0  0
    4.3420   10.0420   53.6020 C   0  0  0  0  0  0  0  0  0  0  0  0
    0.4040    1.3830   45.9440 C   0  0  0  0  0  0  0  0  0  0  0  0
    1.5220   -0.6670   46.5200 C   0  0  0  0  0  0  0  0  0  0  0  0
    2.4680    1.7730   52.0300 C   0  0  0  0  0  0  0  0  0  0  0  0
    1.6530    2.8720   50.0630 C   0  0  0  0  0  0  0  0  0  0  0  0
    3.7570    9.1120   52.7550 C   0  0  0  0  0  0  0  0  0  0  0  0
    3.4680    7.5810   54.5620 C   0  0  0  0  0  0  0  0  0  0  0  0
    4.0800    8.4840   55.4380 C   0  0  0  0  0  0  0  0  0  0  0  0
    0.2550    0.5040   48.2070 C   0  0  0  0  0  0  0  0  0  0  0  0
    2.7350    4.1890   51.7920 C   0  0  0  0  0  0  0  0  0  0  0  0
    4.4860    9.7310   54.9520 C   0  0  0  0  0  0  0  0  0  0  0  0
    1.2310    0.3410   45.6040 C   0  0  0  0  0  0  0  0  0  0  0  0
    1.7280    1.7260   50.8700 C   0  0  0  0  0  0  0  0  0  0  0  0
    3.2870    7.8900   53.2130 C   0  0  0  0  0  0  0  0  0  0  0  0
    4.3030    8.1280   56.8930 C   0  0  0  0  0  0  0  0  0  0  0  0
    5.3560   12.0210   55.5150 C   0  0  0  0  0  0  0  0  0  0  0  0
   -0.1700    0.6140   49.4500 N   0  0  0  0  0  0  0  0  0  0  0  0
    3.0550    5.3160   52.4240 N   0  0  0  0  0  0  0  0  0  0  0  0
   -0.1080    0.2590   51.9030 O   0  0  0  0  0  0  0  0  0  0  0  0
    1.6170   -0.8240   50.5490 O   0  0  0  0  0  0  0  0  0  0  0  0
    3.0200    7.0920   50.7130 O   0  0  0  0  0  0  0  0  0  0  0  0
    1.1020    6.8380   52.2110 O   0  0  0  0  0  0  0  0  0  0  0  0
    5.0330   10.6470   55.8380 O   0  0  0  0  0  0  0  0  0  0  0  0
    1.7440    0.3980   44.3970 F   0  0  0  0  0  0  0  0  0  0  0  0
    0.7310    0.2930   50.7380 S   0  0  2  0  0  0  0  0  0  0  0  0
    2.5240    6.7690   52.0170 S   0  0  2  0  0  0  0  0  0  0  0  0
  1  6  2  0
  1 13  1  0
  2  7  1  0
  2 13  2  0
  3  8  2  0
  3 14  1  0
  4  9  1  0
  4 14  2  0
  5 10  2  0
  5 15  1  0
  6 16  1  0
  7 16  2  0
  8 17  1  0
  9 17  2  0
 10 18  1  0
 11 12  1  0
 11 18  2  0
 12 15  2  0
 12 19  1  0
 13 21  1  0
 14 22  1  0
 15 27  1  0
 16 28  1  0
 17 29  1  0
 18 30  1  0
 20 27  1  0
 21 29  2  0
 22 30  2  0
 23 29  2  0
 29 24  1  6
 25 30  2  0
 30 26  1  6
M  CHG  2  24  -1  26  -1
M  END
>  <washed_aromatic_smiles>  (569) 
Cc1cc(ccc1OC)S(=O)(=O)Nc2ccc(cc2)S(=O)(=O)Nc3ccc(cc3)F

>  <name>  (569) 
neg259201

$$$$
neg63268
     RDKit          3D

 26 28  0  0  0  0  0  0  0  0999 V2000
    2.5150    3.9680   51.5350 C   0  0  0  0  0  0  0  0  0  0  0  0
    2.8860    2.6970   51.8510 C   0  0  0  0  0  0  0  0  0  0  0  0
    2.3920    1.9530   49.6260 C   0  0  0  0  0  0  0  0  0  0  0  0
    2.0420    3.2530   49.2720 C   0  0  0  0  0  0  0  0  0  0  0  0
    2.2280    4.2650   50.2150 C   0  0  0  0  0  0  0  0  0  0  0  0
    2.9380    1.7090   50.8850 C   0  0  0  0  0  0  0  0  0  0  0  0
    1.5640    7.0180   51.7200 C   0  0  0  0  0  0  0  0  0  0  0  0
    2.4690    8.6990   55.1500 C   0  0  0  0  0  0  0  0  0  0  0  0
    3.5150    8.4160   54.0580 C   0  0  0  0  0  0  0  0  0  0  0  0
    1.0470    8.2560   54.7110 C   0  0  0  0  0  0  0  0  0  0  0  0
    2.9870    8.8280   52.6810 C   0  0  0  0  0  0  0  0  0  0  0  0
    0.6760    8.6390   53.2910 C   0  0  0  0  0  0  0  0  0  0  0  0
    3.1920    0.1620   53.9360 C   0  0  0  0  0  0  0  0  0  0  0  0
    1.9730   -1.0200   52.2260 C   0  0  0  0  0  0  0  0  0  0  0  0
    1.7950    0.5290   54.3400 C   0  0  0  0  0  0  0  0  0  0  0  0
    0.8110   -0.0060   52.2530 C   0  0  0  0  0  0  0  0  0  0  0  0
    1.5730    3.5450   47.8690 C   0  0  0  0  0  0  0  0  0  0  0  0
    2.6800    6.5920   50.7780 C   0  0  0  0  0  0  0  0  0  0  0  0
    1.7170    8.1570   52.4220 N   0  0  0  0  0  0  0  0  0  0  0  0
    3.2200   -0.3810   52.5980 N   0  0  0  0  0  0  0  0  0  0  0  0
    0.5270    6.3540   51.8060 O   0  0  0  0  0  0  0  0  0  0  0  0
    4.1410   -0.6010   50.3930 O   0  0  0  0  0  0  0  0  0  0  0  0
    5.1800    1.0250   51.7640 O   0  0  0  0  0  0  0  0  0  0  0  0
    0.9950    0.9540   53.2590 O   0  0  0  0  0  0  0  0  0  0  0  0
    2.2470    5.5630   49.8410 O   0  0  0  0  0  0  0  0  0  0  0  0
    3.9920    0.3770   51.3730 S   0  0  0  0  0  0  0  0  0  0  0  0
  1  2  2  0
  1  5  1  0
  2  6  1  0
  3  4  1  0
  3  6  2  0
  4  5  2  0
  4 17  1  0
  5 25  1  0
  6 26  1  0
  7 18  1  0
  7 19  1  0
  7 21  2  0
  8  9  1  0
  8 10  1  0
  9 11  1  0
 10 12  1  0
 11 19  1  0
 12 19  1  0
 13 15  1  0
 13 20  1  0
 14 16  1  0
 14 20  1  0
 15 24  1  0
 16 24  1  0
 18 25  1  0
 20 26  1  0
 22 26  2  0
 23 26  2  0
M  END
>  <washed_aromatic_smiles>  (570) 
Cc1cc(ccc1OCC(=O)N2CCCCC2)S(=O)(=O)N3CCOCC3

>  <name>  (570) 
neg63268

$$$$
neg172843
     RDKit          3D

 25 26  0  0  0  0  0  0  0  0999 V2000
    1.5220    3.5320   49.8500 C   0  0  0  0  0  0  0  0  0  0  0  0
    2.8350    2.9110   51.7820 C   0  0  0  0  0  0  0  0  0  0  0  0
    4.6860   10.0520   56.6970 C   0  0  0  0  0  0  0  0  0  0  0  0
    1.4910    4.8420   50.3090 C   0  0  0  0  0  0  0  0  0  0  0  0
    2.8550    4.2350   52.1830 C   0  0  0  0  0  0  0  0  0  0  0  0
    5.0570   10.6340   57.9030 C   0  0  0  0  0  0  0  0  0  0  0  0
    5.4310   12.7430   56.7700 C   0  0  0  0  0  0  0  0  0  0  0  0
    5.0630   12.1710   55.5580 C   0  0  0  0  0  0  0  0  0  0  0  0
    2.1390    2.5650   50.6320 C   0  0  0  0  0  0  0  0  0  0  0  0
    4.6930   10.8230   55.5320 C   0  0  0  0  0  0  0  0  0  0  0  0
    2.1550    5.2060   51.4830 C   0  0  0  0  0  0  0  0  0  0  0  0
    5.4450   11.9760   57.9330 C   0  0  0  0  0  0  0  0  0  0  0  0
    1.7820    0.2450   51.2150 C   0  0  0  0  0  0  0  0  0  0  0  0
    5.0930   12.9980   54.2870 C   0  0  0  0  0  0  0  0  0  0  0  0
    2.2080   -1.1250   50.8140 C   0  0  0  0  0  0  0  0  0  0  0  0
    2.9860    8.1880   54.2490 C   0  0  0  0  0  0  0  0  0  0  0  0
    4.2780    8.9270   53.8800 C   0  0  0  0  0  0  0  0  0  0  0  0
    2.0510    1.2170   50.2880 N   0  0  0  0  0  0  0  0  0  0  0  0
    2.8920    6.9100   53.5480 N   0  0  0  0  0  0  0  0  0  0  0  0
    1.2850    0.5000   52.2980 O   0  0  0  0  0  0  0  0  0  0  0  0
    3.0240    7.5950   51.1550 O   0  0  0  0  0  0  0  0  0  0  0  0
    0.8340    7.3610   52.1630 O   0  0  0  0  0  0  0  0  0  0  0  0
    4.3250   10.2940   54.3150 O   0  0  0  0  0  0  0  0  0  0  0  0
    2.1780    6.8990   52.0470 S   0  0  0  0  0  0  0  0  0  0  0  0
    6.0050   12.6940   59.4020 Cl  0  0  0  0  0  0  0  0  0  0  0  0
  1  4  2  0
  1  9  1  0
  2  5  1  0
  2  9  2  0
  3  6  2  0
  3 10  1  0
  4 11  1  0
  5 11  2  0
  6 12  1  0
  7  8  1  0
  7 12  2  0
  8 10  2  0
  8 14  1  0
  9 18  1  0
 10 23  1  0
 11 24  1  0
 12 25  1  0
 13 15  1  0
 13 18  1  0
 13 20  2  0
 16 17  1  0
 16 19  1  0
 17 23  1  0
 19 24  1  0
 21 24  2  0
 22 24  2  0
M  END
>  <washed_aromatic_smiles>  (571) 
Cc1cc(ccc1OCCNS(=O)(=O)c2ccc(cc2)NC(=O)C)Cl

>  <name>  (571) 
neg172843

$$$$
neg234333
     RDKit          3D

 25 27  0  0  0  0  0  0  0  0999 V2000
    2.1580    8.7100   54.1650 C   0  0  0  0  0  0  0  0  0  0  0  0
   -0.1260    0.3360   47.1550 C   0  0  0  0  0  0  0  0  0  0  0  0
    3.0360    8.8390   53.1020 C   0  0  0  0  0  0  0  0  0  0  0  0
    1.1650    7.7460   54.1080 C   0  0  0  0  0  0  0  0  0  0  0  0
    1.0780    0.1920   47.7690 C   0  0  0  0  0  0  0  0  0  0  0  0
   -1.2580    0.0550   47.8850 C   0  0  0  0  0  0  0  0  0  0  0  0
    2.9360    7.9730   52.0190 C   0  0  0  0  0  0  0  0  0  0  0  0
    1.1090    6.8520   53.0450 C   0  0  0  0  0  0  0  0  0  0  0  0
    1.1630    0.2190   49.1500 C   0  0  0  0  0  0  0  0  0  0  0  0
   -1.1930   -0.0010   49.2640 C   0  0  0  0  0  0  0  0  0  0  0  0
    2.0360    6.9120   51.9970 C   0  0  0  0  0  0  0  0  0  0  0  0
    0.0040    0.2560   49.8940 C   0  0  0  0  0  0  0  0  0  0  0  0
    3.4270    2.5830   51.0140 C   0  0  0  0  0  0  0  0  0  0  0  0
    2.4730    1.8070   51.5920 C   0  0  0  0  0  0  0  0  0  0  0  0
    1.2470    2.2320   51.3030 C   0  0  0  0  0  0  0  0  0  0  0  0
    3.1920    3.7690   50.2840 C   0  0  0  0  0  0  0  0  0  0  0  0
    1.1350    3.7330   51.1170 C   0  0  0  0  0  0  0  0  0  0  0  0
    2.9690    0.5130   52.2670 C   0  0  0  0  0  0  0  0  0  0  0  0
    3.8480    4.5150   49.1010 C   0  0  0  0  0  0  0  0  0  0  0  0
    2.0320    6.0230   50.7240 C   0  0  0  0  0  0  0  0  0  0  0  0
    2.1490    4.4800   50.6920 N   0  0  0  0  0  0  0  0  0  0  0  0
    0.3060    4.4830   51.5890 O   0  0  0  0  0  0  0  0  0  0  0  0
   -1.1650    1.6240   51.7260 O   0  0  0  0  0  0  0  0  0  0  0  0
    0.3750   -0.0080   52.4700 O   0  0  0  0  0  0  0  0  0  0  0  0
    0.0240    0.9690   51.5070 S   0  0  0  0  0  0  0  0  0  0  0  0
  1  3  2  0
  1  4  1  0
  2  5  2  0
  2  6  1  0
  3  7  1  0
  4  8  2  0
  5  9  1  0
  6 10  2  0
  7 11  2  0
  8 11  1  0
  9 12  2  0
 10 12  1  0
 11 20  1  0
 12 25  1  0
 13 14  1  0
 13 16  2  0
 14 15  2  0
 14 18  1  0
 15 17  1  0
 15 25  1  0
 16 19  1  0
 16 21  1  0
 17 21  1  0
 17 22  2  0
 20 21  1  0
 23 25  2  0
 24 25  2  0
M  END
>  <washed_aromatic_smiles>  (572) 
Cc1cc(n(c(=O)c1S(=O)(=O)c2ccccc2)Cc3ccccc3)C

>  <name>  (572) 
neg234333

$$$$
neg107963
     RDKit          3D

 27 29  0  0  0  0  0  0  0  0999 V2000
    4.9600    8.2240   55.8980 C   0  0  0  0  0  0  0  0  0  0  0  0
    2.8130    8.8190   56.8280 C   0  0  0  0  0  0  0  0  0  0  0  0
    4.3960    8.1740   54.6350 C   0  0  0  0  0  0  0  0  0  0  0  0
    2.2540    8.7500   55.5550 C   0  0  0  0  0  0  0  0  0  0  0  0
    2.0340    0.2910   50.7890 C   0  0  0  0  0  0  0  0  0  0  0  0
    4.1570    8.4960   56.9980 C   0  0  0  0  0  0  0  0  0  0  0  0
    3.0350    8.4190   54.4500 C   0  0  0  0  0  0  0  0  0  0  0  0
    0.8540    1.0050   50.7820 C   0  0  0  0  0  0  0  0  0  0  0  0
    3.2110    1.0030   50.9610 C   0  0  0  0  0  0  0  0  0  0  0  0
    2.0250    2.9570   51.0710 C   0  0  0  0  0  0  0  0  0  0  0  0
    5.3170    7.2150   58.7270 C   0  0  0  0  0  0  0  0  0  0  0  0
    2.8600    5.2010   50.5210 C   0  0  0  0  0  0  0  0  0  0  0  0
    0.7460    5.1370   51.4440 C   0  0  0  0  0  0  0  0  0  0  0  0
    3.1800    6.4160   51.3780 C   0  0  0  0  0  0  0  0  0  0  0  0
    0.8960    6.3880   52.3270 C   0  0  0  0  0  0  0  0  0  0  0  0
   -0.4970    0.3890   50.6210 C   0  0  0  0  0  0  0  0  0  0  0  0
    4.5330    0.3110   50.9970 C   0  0  0  0  0  0  0  0  0  0  0  0
    5.9850    7.2280   60.0750 C   0  0  0  0  0  0  0  0  0  0  0  0
    0.8890    2.2990   50.9290 N   0  0  0  0  0  0  0  0  0  0  0  0
    3.1920    2.3200   51.1070 N   0  0  0  0  0  0  0  0  0  0  0  0
    1.9690    4.3450   51.2360 N   0  0  0  0  0  0  0  0  0  0  0  0
    2.1220    7.1180   52.1000 N   0  0  0  0  0  0  0  0  0  0  0  0
    4.7220    8.3800   58.2870 N   0  0  0  0  0  0  0  0  0  0  0  0
    5.2920    6.2120   58.0400 O   0  0  0  0  0  0  0  0  0  0  0  0
    1.1960    9.3320   52.8490 O   0  0  0  0  0  0  0  0  0  0  0  0
    3.4970    9.2080   52.0970 O   0  0  0  0  0  0  0  0  0  0  0  0
    2.4200    8.6060   52.7860 S   0  0  0  0  0  0  0  0  0  0  0  0
  1  3  2  0
  1  6  1  0
  2  4  1  0
  2  6  2  0
  3  7  1  0
  4  7  2  0
  5  8  2  0
  5  9  1  0
  6 23  1  0
  7 27  1  0
  8 16  1  0
  8 19  1  0
  9 17  1  0
  9 20  2  0
 10 19  2  0
 10 20  1  0
 10 21  1  0
 11 18  1  0
 11 23  1  0
 11 24  2  0
 12 14  1  0
 12 21  1  0
 13 15  1  0
 13 21  1  0
 14 22  1  0
 15 22  1  0
 22 27  1  0
 25 27  2  0
 26 27  2  0
M  END
>  <washed_aromatic_smiles>  (573) 
Cc1cc(nc(n1)N2CCN(CC2)S(=O)(=O)c3ccc(cc3)NC(=O)C)C

>  <name>  (573) 
neg107963

$$$$
neg106361
     RDKit          3D

 25 26  0  0  0  0  0  0  0  0999 V2000
    2.7950    3.5930   52.0070 C   0  0  0  0  0  0  0  0  0  0  0  0
    1.5780    4.1010   49.9820 C   0  0  0  0  0  0  0  0  0  0  0  0
    2.6560    2.2420   51.7590 C   0  0  0  0  0  0  0  0  0  0  0  0
    1.4050    2.7360   49.7600 C   0  0  0  0  0  0  0  0  0  0  0  0
    2.5890    8.9370   55.5380 C   0  0  0  0  0  0  0  0  0  0  0  0
    2.1860    4.5050   51.1690 C   0  0  0  0  0  0  0  0  0  0  0  0
    1.8410    1.8120   50.7130 C   0  0  0  0  0  0  0  0  0  0  0  0
    1.5090    8.5220   54.7700 C   0  0  0  0  0  0  0  0  0  0  0  0
    3.8440    8.9860   54.9520 C   0  0  0  0  0  0  0  0  0  0  0  0
    2.8920    8.2630   53.0090 C   0  0  0  0  0  0  0  0  0  0  0  0
    2.1440   -0.7630   53.1260 C   0  0  0  0  0  0  0  0  0  0  0  0
    2.8500    6.8070   51.0520 C   0  0  0  0  0  0  0  0  0  0  0  0
    0.1180    8.4750   55.3170 C   0  0  0  0  0  0  0  0  0  0  0  0
    5.0620    9.4260   55.7250 C   0  0  0  0  0  0  0  0  0  0  0  0
    2.4240   -0.3970   54.5570 C   0  0  0  0  0  0  0  0  0  0  0  0
    1.6680    8.1640   53.5110 N   0  0  0  0  0  0  0  0  0  0  0  0
    3.9800    8.6580   53.6780 N   0  0  0  0  0  0  0  0  0  0  0  0
    3.0740    7.9720   51.6720 N   0  0  0  0  0  0  0  0  0  0  0  0
    3.3630    6.6190   49.8490 N   0  0  0  0  0  0  0  0  0  0  0  0
    2.1720    5.8310   51.6330 N   0  0  0  0  0  0  0  0  0  0  0  0
    1.1310   -0.0970   52.5020 N   0  0  0  0  0  0  0  0  0  0  0  0
    2.8220   -1.5730   52.5440 O   0  0  0  0  0  0  0  0  0  0  0  0
   -0.2300    0.2520   50.3880 O   0  0  0  0  0  0  0  0  0  0  0  0
    1.9370   -0.7550   50.1600 O   0  0  0  0  0  0  0  0  0  0  0  0
    1.1160    0.1810   50.8310 S   0  0  0  0  0  0  0  0  0  0  0  0
  1  3  2  0
  1  6  1  0
  2  4  1  0
  2  6  2  0
  3  7  1  0
  4  7  2  0
  5  8  2  0
  5  9  1  0
  6 20  1  0
  7 25  1  0
  8 13  1  0
  8 16  1  0
  9 14  1  0
  9 17  2  0
 10 16  2  0
 10 17  1  0
 10 18  1  0
 11 15  1  0
 11 21  1  0
 11 22  2  0
 12 18  1  0
 12 19  2  0
 12 20  1  0
 21 25  1  0
 23 25  2  0
 24 25  2  0
M  CHG  1  19   1
M  END
>  <washed_aromatic_smiles>  (574) 
Cc1cc(nc(n1)/N=C(\N)/Nc2ccc(cc2)S(=O)(=O)NC(=O)C)C

>  <name>  (574) 
neg106361

$$$$
neg213007
     RDKit          3D

 26 28  0  0  0  0  0  0  0  0999 V2000
    0.1940    8.1830   53.2860 C   0  0  0  0  0  0  0  0  0  0  0  0
   -0.0710    7.2300   52.3070 C   0  0  0  0  0  0  0  0  0  0  0  0
    1.4040    8.1690   53.9410 C   0  0  0  0  0  0  0  0  0  0  0  0
    1.9760    4.0520   48.8200 C   0  0  0  0  0  0  0  0  0  0  0  0
    2.5090    3.0010   50.9180 C   0  0  0  0  0  0  0  0  0  0  0  0
    0.9130    6.3670   51.8720 C   0  0  0  0  0  0  0  0  0  0  0  0
    1.3520    2.8840   48.3920 C   0  0  0  0  0  0  0  0  0  0  0  0
    1.8850    1.8330   50.4930 C   0  0  0  0  0  0  0  0  0  0  0  0
    5.3100   12.4800   56.3070 C   0  0  0  0  0  0  0  0  0  0  0  0
    2.3730    7.2180   53.6090 C   0  0  0  0  0  0  0  0  0  0  0  0
    2.5600    4.1200   50.0850 C   0  0  0  0  0  0  0  0  0  0  0  0
    2.1580    6.4060   52.4820 C   0  0  0  0  0  0  0  0  0  0  0  0
    1.3040    1.7710   49.2300 C   0  0  0  0  0  0  0  0  0  0  0  0
    5.1670   12.3530   54.9280 C   0  0  0  0  0  0  0  0  0  0  0  0
    5.0920   11.3570   57.1030 C   0  0  0  0  0  0  0  0  0  0  0  0
    4.6180   10.1930   55.2050 C   0  0  0  0  0  0  0  0  0  0  0  0
    3.4460    6.9780   54.5360 C   0  0  0  0  0  0  0  0  0  0  0  0
    5.3170   13.4480   53.9310 C   0  0  0  0  0  0  0  0  0  0  0  0
    5.1880   11.3940   58.6090 C   0  0  0  0  0  0  0  0  0  0  0  0
    3.2470    5.4010   50.5280 C   0  0  0  0  0  0  0  0  0  0  0  0
    4.8350   11.2100   54.3960 N   0  0  0  0  0  0  0  0  0  0  0  0
    4.7510   10.2090   56.5400 N   0  0  0  0  0  0  0  0  0  0  0  0
    4.2100    7.8450   55.0680 N   0  0  0  0  0  0  0  0  0  0  0  0
    4.1500    9.0910   54.5530 N   0  0  0  0  0  0  0  0  0  0  0  0
    3.1800    5.6390   51.9740 O   0  0  0  0  0  0  0  0  0  0  0  0
    0.4470    0.1820   48.6610 Br  0  0  0  0  0  0  0  0  0  0  0  0
  1  2  2  0
  1  3  1  0
  2  6  1  0
  3 10  2  0
  4  7  2  0
  4 11  1  0
  5  8  1  0
  5 11  2  0
  6 12  2  0
  7 13  1  0
  8 13  2  0
  9 14  2  0
  9 15  1  0
 10 12  1  0
 10 17  1  0
 11 20  1  0
 12 25  1  0
 13 26  1  0
 14 18  1  0
 14 21  1  0
 15 19  1  0
 15 22  2  0
 16 21  2  0
 16 22  1  0
 16 24  1  0
 17 23  2  0
 20 25  1  0
 23 24  1  0
M  END
>  <washed_aromatic_smiles>  (575) 
Cc1cc(nc(n1)N/N=C/c2ccccc2OCc3ccc(cc3)Br)C

>  <name>  (575) 
neg213007

$$$$
neg217453
     RDKit          3D

 29 32  0  0  0  0  0  0  0  0999 V2000
    5.9920   12.7380   59.2380 C   0  0  0  0  0  0  0  0  0  0  0  0
    5.9510   13.7540   58.2790 C   0  0  0  0  0  0  0  0  0  0  0  0
    5.5650   11.4450   58.9240 C   0  0  0  0  0  0  0  0  0  0  0  0
    5.4650   13.4820   57.0070 C   0  0  0  0  0  0  0  0  0  0  0  0
    2.8150    8.4750   55.0730 C   0  0  0  0  0  0  0  0  0  0  0  0
    4.0600    9.5920   53.3320 C   0  0  0  0  0  0  0  0  0  0  0  0
    2.2990    7.5910   54.1270 C   0  0  0  0  0  0  0  0  0  0  0  0
    3.4880    8.7410   52.4050 C   0  0  0  0  0  0  0  0  0  0  0  0
    2.0610    1.7210   49.8060 C   0  0  0  0  0  0  0  0  0  0  0  0
    5.1240   11.1800   57.6300 C   0  0  0  0  0  0  0  0  0  0  0  0
    5.1090   12.1850   56.6900 C   0  0  0  0  0  0  0  0  0  0  0  0
    3.7390    9.4440   54.6780 C   0  0  0  0  0  0  0  0  0  0  0  0
    2.6830    7.6760   52.7910 C   0  0  0  0  0  0  0  0  0  0  0  0
    1.8390    2.9510   49.2710 C   0  0  0  0  0  0  0  0  0  0  0  0
    2.5830    1.6030   51.1300 C   0  0  0  0  0  0  0  0  0  0  0  0
    2.5280    3.9430   51.3760 C   0  0  0  0  0  0  0  0  0  0  0  0
    4.6520    9.9750   56.9920 C   0  0  0  0  0  0  0  0  0  0  0  0
    4.6840   11.6560   55.4340 C   0  0  0  0  0  0  0  0  0  0  0  0
    1.3730    3.2520   47.8700 C   0  0  0  0  0  0  0  0  0  0  0  0
    2.8880    0.2330   51.6930 C   0  0  0  0  0  0  0  0  0  0  0  0
    2.0750    4.0440   50.0560 N   0  0  0  0  0  0  0  0  0  0  0  0
    2.8110    2.6390   51.8540 N   0  0  0  0  0  0  0  0  0  0  0  0
    4.3470   10.3040   55.6490 N   0  0  0  0  0  0  0  0  0  0  0  0
    2.6570    4.9930   52.1090 N   0  0  0  0  0  0  0  0  0  0  0  0
    4.5420    8.8550   57.4760 O   0  0  0  0  0  0  0  0  0  0  0  0
    4.6400   12.2560   54.3670 O   0  0  0  0  0  0  0  0  0  0  0  0
    2.9680    6.7330   50.3690 O   0  0  0  0  0  0  0  0  0  0  0  0
    0.7850    6.4980   51.4300 O   0  0  0  0  0  0  0  0  0  0  0  0
    2.2090    6.4650   51.5490 S   0  0  0  0  0  0  0  0  0  0  0  0
  1  2  2  0
  1  3  1  0
  2  4  1  0
  3 10  2  0
  4 11  2  0
  5  7  2  0
  5 12  1  0
  6  8  1  0
  6 12  2  0
  7 13  1  0
  8 13  2  0
  9 14  2  0
  9 15  1  0
 10 11  1  0
 10 17  1  0
 11 18  1  0
 12 23  1  0
 13 29  1  0
 14 19  1  0
 14 21  1  0
 15 20  1  0
 15 22  2  0
 16 21  1  0
 16 22  1  0
 16 24  2  0
 17 23  1  0
 17 25  2  0
 18 23  1  0
 18 26  2  0
 24 29  1  0
 27 29  2  0
 28 29  2  0
M  END
>  <washed_aromatic_smiles>  (576) 
Cc1cc(nc(n1)NS(=O)(=O)c2ccc(cc2)N3C(=O)c4ccccc4C3=O)C

>  <name>  (576) 
neg217453

$$$$
neg253707
     RDKit          3D

 29 31  0  0  0  0  0  0  0  0999 V2000
    2.1670   -0.0500   54.0880 C   0  0  0  0  0  0  0  0  0  0  0  0
    1.2050   -0.4880   53.1940 C   0  0  0  0  0  0  0  0  0  0  0  0
    3.1930    0.7640   53.6460 C   0  0  0  0  0  0  0  0  0  0  0  0
    2.9100    4.7580   52.2480 C   0  0  0  0  0  0  0  0  0  0  0  0
    2.8340    5.8560   50.1170 C   0  0  0  0  0  0  0  0  0  0  0  0
    1.2720   -0.1310   51.8520 C   0  0  0  0  0  0  0  0  0  0  0  0
    3.3230    1.0660   52.2940 C   0  0  0  0  0  0  0  0  0  0  0  0
    3.1370    5.9700   52.8720 C   0  0  0  0  0  0  0  0  0  0  0  0
    3.0580    7.0630   50.7680 C   0  0  0  0  0  0  0  0  0  0  0  0
    5.1900   10.6500   57.4680 C   0  0  0  0  0  0  0  0  0  0  0  0
    2.6670    4.7170   50.8870 C   0  0  0  0  0  0  0  0  0  0  0  0
    2.3590    0.6010   51.4030 C   0  0  0  0  0  0  0  0  0  0  0  0
    3.0890    7.1560   52.1640 C   0  0  0  0  0  0  0  0  0  0  0  0
    4.8650   11.2110   56.2720 C   0  0  0  0  0  0  0  0  0  0  0  0
    5.0670    9.2380   57.6550 C   0  0  0  0  0  0  0  0  0  0  0  0
    4.2070    9.0130   55.4900 C   0  0  0  0  0  0  0  0  0  0  0  0
    1.8500    3.0230   49.1990 C   0  0  0  0  0  0  0  0  0  0  0  0
    4.9880   12.6760   55.9170 C   0  0  0  0  0  0  0  0  0  0  0  0
    5.5280    8.5960   58.9410 C   0  0  0  0  0  0  0  0  0  0  0  0
    1.5140    1.5540   49.2500 C   0  0  0  0  0  0  0  0  0  0  0  0
    4.3930   10.3820   55.2820 N   0  0  0  0  0  0  0  0  0  0  0  0
    4.6050    8.4790   56.7310 N   0  0  0  0  0  0  0  0  0  0  0  0
    2.2670    3.4690   50.4180 N   0  0  0  0  0  0  0  0  0  0  0  0
    3.7080    8.2690   54.5820 N   0  0  0  0  0  0  0  0  0  0  0  0
    1.7910    3.7190   48.2050 O   0  0  0  0  0  0  0  0  0  0  0  0
    1.8830    9.2440   53.1730 O   0  0  0  0  0  0  0  0  0  0  0  0
    4.1900    9.5430   52.4900 O   0  0  0  0  0  0  0  0  0  0  0  0
    2.4940    0.8400   50.0630 O   0  0  0  0  0  0  0  0  0  0  0  0
    3.2000    8.7060   53.0850 S   0  0  0  0  0  0  0  0  0  0  0  0
  1  2  2  0
  1  3  1  0
  2  6  1  0
  3  7  2  0
  4  8  2  0
  4 11  1  0
  5  9  1  0
  5 11  2  0
  6 12  2  0
  7 12  1  0
  8 13  1  0
  9 13  2  0
 10 14  2  0
 10 15  1  0
 11 23  1  0
 12 28  1  0
 13 29  1  0
 14 18  1  0
 14 21  1  0
 15 19  1  0
 15 22  2  0
 16 21  1  0
 16 22  1  0
 16 24  2  0
 17 20  1  0
 17 23  1  0
 17 25  2  0
 20 28  1  0
 24 29  1  0
 26 29  2  0
 27 29  2  0
M  END
>  <washed_aromatic_smiles>  (577) 
Cc1cc(nc(n1)NS(=O)(=O)c2ccc(cc2)NC(=O)COc3ccccc3)C

>  <name>  (577) 
neg253707

$$$$
neg100691
     RDKit          3D

 33 35  0  0  0  0  0  0  0  0999 V2000
    2.8780    3.6060   52.1520 C   0  0  0  0  0  0  0  0  0  0  0  0
    1.9670    4.3150   50.0680 C   0  0  0  0  0  0  0  0  0  0  0  0
    4.9500    8.0830   53.8620 C   0  0  0  0  0  0  0  0  0  0  0  0
    2.8030    8.7210   52.9910 C   0  0  0  0  0  0  0  0  0  0  0  0
    2.4460    2.3140   51.9260 C   0  0  0  0  0  0  0  0  0  0  0  0
    1.4430    3.0350   49.8800 C   0  0  0  0  0  0  0  0  0  0  0  0
    5.3390    9.4030   53.9390 C   0  0  0  0  0  0  0  0  0  0  0  0
    3.2350   10.0330   53.0250 C   0  0  0  0  0  0  0  0  0  0  0  0
    5.3390   11.3070   58.5940 C   0  0  0  0  0  0  0  0  0  0  0  0
    2.6120    4.6450   51.2700 C   0  0  0  0  0  0  0  0  0  0  0  0
    3.6970    7.7210   53.3340 C   0  0  0  0  0  0  0  0  0  0  0  0
    4.4990   10.4020   53.4880 C   0  0  0  0  0  0  0  0  0  0  0  0
    1.5640    2.0700   50.8840 C   0  0  0  0  0  0  0  0  0  0  0  0
    4.8240   10.5240   57.6080 C   0  0  0  0  0  0  0  0  0  0  0  0
    5.7840   12.6330   58.3000 C   0  0  0  0  0  0  0  0  0  0  0  0
    5.2880   12.2940   56.0430 C   0  0  0  0  0  0  0  0  0  0  0  0
    2.9840    6.0250   51.6170 C   0  0  0  0  0  0  0  0  0  0  0  0
    4.3430    9.1000   57.7390 C   0  0  0  0  0  0  0  0  0  0  0  0
    6.3880   13.5000   59.3820 C   0  0  0  0  0  0  0  0  0  0  0  0
    0.8970   -0.4530   48.7050 C   0  0  0  0  0  0  0  0  0  0  0  0
    2.3910   -1.0010   50.5740 C   0  0  0  0  0  0  0  0  0  0  0  0
    4.7480   11.0510   56.3480 N   0  0  0  0  0  0  0  0  0  0  0  0
    5.7500   13.0910   57.1050 N   0  0  0  0  0  0  0  0  0  0  0  0
    3.3840    6.3740   52.9360 N   0  0  0  0  0  0  0  0  0  0  0  0
    5.4220   12.6770   54.8380 N   0  0  0  0  0  0  0  0  0  0  0  0
    1.1040   -0.5070   50.1540 N   0  0  0  0  0  0  0  0  0  0  0  0
    2.9650    6.9030   50.7700 O   0  0  0  0  0  0  0  0  0  0  0  0
    4.2240   12.8730   52.6800 O   0  0  0  0  0  0  0  0  0  0  0  0
    6.4360   11.9170   52.6970 O   0  0  0  0  0  0  0  0  0  0  0  0
    0.5120    0.2650   52.4570 O   0  0  0  0  0  0  0  0  0  0  0  0
   -0.8350    0.9930   50.5920 O   0  0  0  0  0  0  0  0  0  0  0  0
    5.1760   12.0590   53.3420 S   0  0  0  0  0  0  0  0  0  0  0  0
    0.4520    0.6620   51.0900 S   0  0  0  0  0  0  0  0  0  0  0  0
  1  5  2  0
  1 10  1  0
  2  6  1  0
  2 10  2  0
  3  7  2  0
  3 11  1  0
  4  8  1  0
  4 11  2  0
  5 13  1  0
  6 13  2  0
  7 12  1  0
  8 12  2  0
  9 14  2  0
  9 15  1  0
 10 17  1  0
 11 24  1  0
 12 32  1  0
 13 33  1  0
 14 18  1  0
 14 22  1  0
 15 19  1  0
 15 23  2  0
 16 22  1  0
 16 23  1  0
 16 25  2  0
 17 24  1  0
 17 27  2  0
 20 26  1  0
 21 26  1  0
 25 32  1  0
 26 33  1  0
 28 32  2  0
 29 32  2  0
 30 33  2  0
 31 33  2  0
M  END
>  <washed_aromatic_smiles>  (578) 
Cc1cc(nc(n1)NS(=O)(=O)c2ccc(cc2)NC(=O)c3ccc(cc3)S(=O)(=O)N(C)C)C

>  <name>  (578) 
neg100691

$$$$
neg136350
     RDKit          3D

 25 26  0  0  0  0  0  0  0  0999 V2000
    0.4120    5.8250   52.3800 C   0  0  0  0  0  0  0  0  0  0  0  0
    1.0820    5.0680   51.4380 C   0  0  0  0  0  0  0  0  0  0  0  0
    1.0020    6.9700   52.8870 C   0  0  0  0  0  0  0  0  0  0  0  0
    2.7890    6.7510   51.2990 C   0  0  0  0  0  0  0  0  0  0  0  0
   -0.2940    0.1740   50.4490 C   0  0  0  0  0  0  0  0  0  0  0  0
    2.2570    5.5510   50.8870 C   0  0  0  0  0  0  0  0  0  0  0  0
    2.2170    7.4150   52.3690 C   0  0  0  0  0  0  0  0  0  0  0  0
    0.9310    0.7950   50.6330 C   0  0  0  0  0  0  0  0  0  0  0  0
   -0.8030    0.0500   49.1570 C   0  0  0  0  0  0  0  0  0  0  0  0
    0.8750    1.3660   48.4230 C   0  0  0  0  0  0  0  0  0  0  0  0
    2.1200    4.4740   48.7710 C   0  0  0  0  0  0  0  0  0  0  0  0
    1.6170    0.8030   51.9790 C   0  0  0  0  0  0  0  0  0  0  0  0
   -2.1790   -0.4960   48.8040 C   0  0  0  0  0  0  0  0  0  0  0  0
    2.3420    9.0110   55.6850 C   0  0  0  0  0  0  0  0  0  0  0  0
    4.5920    8.3780   54.9760 C   0  0  0  0  0  0  0  0  0  0  0  0
    2.6520    3.4040   47.8940 C   0  0  0  0  0  0  0  0  0  0  0  0
    1.5040    1.4060   49.6150 N   0  0  0  0  0  0  0  0  0  0  0  0
   -0.1630    0.5900   48.1520 N   0  0  0  0  0  0  0  0  0  0  0  0
    2.8620    4.8520   49.8450 N   0  0  0  0  0  0  0  0  0  0  0  0
    3.2280    8.7030   54.5750 N   0  0  0  0  0  0  0  0  0  0  0  0
    1.0150    4.9340   48.5880 O   0  0  0  0  0  0  0  0  0  0  0  0
    4.0180    9.3190   52.2760 O   0  0  0  0  0  0  0  0  0  0  0  0
    1.7310    9.8130   52.8280 O   0  0  0  0  0  0  0  0  0  0  0  0
    1.2480    2.4870   47.1800 S   0  0  0  0  0  0  0  0  0  0  0  0
    2.8360    8.9520   52.9670 S   0  0  0  0  0  0  0  0  0  0  0  0
  1  2  2  0
  1  3  1  0
  2  6  1  0
  3  7  2  0
  4  6  2  0
  4  7  1  0
  5  8  2  0
  5  9  1  0
  6 19  1  0
  7 25  1  0
  8 12  1  0
  8 17  1  0
  9 13  1  0
  9 18  2  0
 10 17  2  0
 10 18  1  0
 10 24  1  0
 11 16  1  0
 11 19  1  0
 11 21  2  0
 14 20  1  0
 15 20  1  0
 16 24  1  0
 20 25  1  0
 22 25  2  0
 23 25  2  0
M  END
>  <washed_aromatic_smiles>  (579) 
Cc1cc(nc(n1)SCC(=O)Nc2cccc(c2)S(=O)(=O)N(C)C)C

>  <name>  (579) 
neg136350

$$$$
neg228131
     RDKit          3D

 28 30  0  0  0  0  0  0  0  0999 V2000
    2.7390    5.8620   47.9480 C   0  0  0  0  0  0  0  0  0  0  0  0
    5.1030    9.5780   58.0400 C   0  0  0  0  0  0  0  0  0  0  0  0
    1.8780    4.7690   47.9290 C   0  0  0  0  0  0  0  0  0  0  0  0
    3.7470    5.9790   48.8250 C   0  0  0  0  0  0  0  0  0  0  0  0
    4.8340   10.9410   58.0040 C   0  0  0  0  0  0  0  0  0  0  0  0
    5.3680    8.8950   56.8600 C   0  0  0  0  0  0  0  0  0  0  0  0
    2.0700    3.7630   48.8270 C   0  0  0  0  0  0  0  0  0  0  0  0
    3.8510    5.0630   49.8050 C   0  0  0  0  0  0  0  0  0  0  0  0
    4.8250   11.6200   56.7880 C   0  0  0  0  0  0  0  0  0  0  0  0
    5.3670    9.5760   55.6460 C   0  0  0  0  0  0  0  0  0  0  0  0
    2.9600    4.0020   49.8590 C   0  0  0  0  0  0  0  0  0  0  0  0
    5.0910   10.9470   55.5940 C   0  0  0  0  0  0  0  0  0  0  0  0
    2.9050    8.8090   52.7210 C   0  0  0  0  0  0  0  0  0  0  0  0
    0.9610    7.0750   52.7320 C   0  0  0  0  0  0  0  0  0  0  0  0
    3.2110    6.7380   53.8710 C   0  0  0  0  0  0  0  0  0  0  0  0
    1.3230    5.9720   51.7070 C   0  0  0  0  0  0  0  0  0  0  0  0
    3.4230    5.6530   52.7990 C   0  0  0  0  0  0  0  0  0  0  0  0
    2.1470    7.7490   53.4710 C   0  0  0  0  0  0  0  0  0  0  0  0
    2.2380    4.9390   52.2370 N   0  0  0  0  0  0  0  0  0  0  0  0
    3.3520    9.8310   53.4580 N   0  0  0  0  0  0  0  0  0  0  0  0
    4.2900   10.8110   53.0380 N   0  0  0  0  0  0  0  0  0  0  0  0
    3.3290    8.6340   51.5820 O   0  0  0  0  0  0  0  0  0  0  0  0
    1.1480    2.8270   51.1110 O   0  0  0  0  0  0  0  0  0  0  0  0
    3.3380    2.5680   52.0330 O   0  0  0  0  0  0  0  0  0  0  0  0
    6.3430   12.0450   53.5510 O   0  0  0  0  0  0  0  0  0  0  0  0
    4.2160   13.0060   54.2150 O   0  0  0  0  0  0  0  0  0  0  0  0
    2.4050    3.4320   51.3970 S   0  0  0  0  0  0  0  0  0  0  0  0
    5.0140   11.8270   54.0220 S   0  0  2  0  0  0  0  0  0  0  0  0
  1  3  2  0
  1  4  1  0
  2  5  2  0
  2  6  1  0
  3  7  1  0
  4  8  2  0
  5  9  1  0
  6 10  2  0
  7 11  2  0
  8 11  1  0
  9 12  2  0
 10 12  1  0
 11 27  1  0
 12 28  1  0
 13 18  1  0
 13 20  1  0
 13 22  2  0
 14 16  1  0
 14 18  1  0
 15 17  1  0
 15 18  1  0
 16 19  1  0
 17 19  1  0
 19 27  1  0
 20 21  1  0
 21 28  2  0
 23 27  2  0
 24 27  2  0
 25 28  2  0
 28 26  1  1
M  CHG  1  26  -1
M  END
>  <washed_aromatic_smiles>  (580) 
c1ccc(cc1)S(=O)(=O)NNC(=O)C2CCN(CC2)S(=O)(=O)c3ccccc3

>  <name>  (580) 
neg228131

$$$$
neg60561
     RDKit          3D

 25 27  0  0  0  0  0  0  0  0999 V2000
    4.1890    8.7000   57.3630 C   0  0  0  0  0  0  0  0  0  0  0  0
    2.8740    8.9170   56.9640 C   0  0  0  0  0  0  0  0  0  0  0  0
    5.1710    8.4840   56.4050 C   0  0  0  0  0  0  0  0  0  0  0  0
    2.9350    3.9790   52.2610 C   0  0  0  0  0  0  0  0  0  0  0  0
    2.9040    4.6970   49.9730 C   0  0  0  0  0  0  0  0  0  0  0  0
    3.2110    5.2670   52.6430 C   0  0  0  0  0  0  0  0  0  0  0  0
    3.0260    6.0110   50.3760 C   0  0  0  0  0  0  0  0  0  0  0  0
    2.5400    8.9110   55.6170 C   0  0  0  0  0  0  0  0  0  0  0  0
    4.8400    8.5090   55.0540 C   0  0  0  0  0  0  0  0  0  0  0  0
    2.7600    3.6370   50.9110 C   0  0  0  0  0  0  0  0  0  0  0  0
    3.0730    6.3360   51.7560 C   0  0  0  0  0  0  0  0  0  0  0  0
    3.5230    8.7370   54.6520 C   0  0  0  0  0  0  0  0  0  0  0  0
    2.5670    2.2310   50.6040 C   0  0  0  0  0  0  0  0  0  0  0  0
    0.7360    1.8260   46.5800 C   0  0  0  0  0  0  0  0  0  0  0  0
    0.8560    0.3790   47.0550 C   0  0  0  0  0  0  0  0  0  0  0  0
    1.3520    2.9290   47.4420 C   0  0  0  0  0  0  0  0  0  0  0  0
    0.3250   -0.0510   48.4360 C   0  0  0  0  0  0  0  0  0  0  0  0
    0.9270    2.7410   48.8580 C   0  0  0  0  0  0  0  0  0  0  0  0
    1.1420    0.4210   49.6620 C   0  0  0  0  0  0  0  0  0  0  0  0
    1.7120    1.7880   49.5980 N   0  0  0  0  0  0  0  0  0  0  0  0
    3.0830    7.5400   52.2590 N   0  0  0  0  0  0  0  0  0  0  0  0
    3.1270    1.3390   51.2650 O   0  0  0  0  0  0  0  0  0  0  0  0
    4.2900    9.7180   52.4160 O   0  0  0  0  0  0  0  0  0  0  0  0
    1.8790    9.6160   52.8140 O   0  0  0  0  0  0  0  0  0  0  0  0
    3.1620    8.9980   52.9240 S   0  0  2  0  0  0  0  0  0  0  0  0
  1  2  2  0
  1  3  1  0
  2  8  1  0
  3  9  2  0
  4  6  2  0
  4 10  1  0
  5  7  1  0
  5 10  2  0
  6 11  1  0
  7 11  2  0
  8 12  2  0
  9 12  1  0
 10 13  1  0
 11 21  1  0
 12 25  1  0
 13 20  1  0
 13 22  2  0
 14 15  1  0
 14 16  1  0
 15 17  1  0
 16 18  1  0
 17 19  1  0
 18 20  1  0
 19 20  1  0
 21 25  2  0
 23 25  2  0
 25 24  1  1
M  CHG  1  24  -1
M  END
>  <washed_aromatic_smiles>  (581) 
c1ccc(cc1)S(=O)(=O)Nc2ccc(cc2)C(=O)N3CCCCCC3

>  <name>  (581) 
neg60561

$$$$
neg238292
     RDKit          3D

 26 28  0  0  0  0  0  0  0  0999 V2000
    3.7260    0.7280   56.3670 C   0  0  0  0  0  0  0  0  0  0  0  0
    3.1900    8.7540   54.8140 C   0  0  0  0  0  0  0  0  0  0  0  0
    3.8520   -0.5360   55.8120 C   0  0  0  0  0  0  0  0  0  0  0  0
    3.0780    1.7110   55.6480 C   0  0  0  0  0  0  0  0  0  0  0  0
    1.8700    8.8110   55.2410 C   0  0  0  0  0  0  0  0  0  0  0  0
    1.5520    3.7310   48.9250 C   0  0  0  0  0  0  0  0  0  0  0  0
    2.1980    4.7330   49.6460 C   0  0  0  0  0  0  0  0  0  0  0  0
    3.4980    8.1530   53.6020 C   0  0  0  0  0  0  0  0  0  0  0  0
    1.3870    2.4630   49.4590 C   0  0  0  0  0  0  0  0  0  0  0  0
    3.3790   -0.7870   54.5240 C   0  0  0  0  0  0  0  0  0  0  0  0
    2.7220    1.4730   54.3260 C   0  0  0  0  0  0  0  0  0  0  0  0
    0.8450    8.3030   54.4440 C   0  0  0  0  0  0  0  0  0  0  0  0
    2.7110    3.1310   51.3540 C   0  0  0  0  0  0  0  0  0  0  0  0
    2.7020    4.4550   50.9210 C   0  0  0  0  0  0  0  0  0  0  0  0
    1.9420    2.1230   50.7210 C   0  0  0  0  0  0  0  0  0  0  0  0
    2.4800    7.6000   52.8210 C   0  0  0  0  0  0  0  0  0  0  0  0
    2.9250    0.2470   53.7150 C   0  0  0  0  0  0  0  0  0  0  0  0
    1.1480    7.6840   53.2330 C   0  0  0  0  0  0  0  0  0  0  0  0
    3.1490    5.5130   51.8420 C   0  0  0  0  0  0  0  0  0  0  0  0
    2.7510    6.8200   51.6620 N   0  0  0  0  0  0  0  0  0  0  0  0
    1.7190    0.9130   51.2510 N   0  0  0  0  0  0  0  0  0  0  0  0
    3.7680    5.2870   52.8740 O   0  0  0  0  0  0  0  0  0  0  0  0
    2.3680   -1.4150   51.7870 O   0  0  0  0  0  0  0  0  0  0  0  0
    4.1040    0.2390   51.3720 O   0  0  0  0  0  0  0  0  0  0  0  0
    2.8160   -0.0630   51.9280 S   0  0  2  0  0  0  0  0  0  0  0  0
   -0.0850    6.9400   52.2740 Cl  0  0  0  0  0  0  0  0  0  0  0  0
  1  3  2  0
  1  4  1  0
  2  5  2  0
  2  8  1  0
  3 10  1  0
  4 11  2  0
  5 12  1  0
  6  7  2  0
  6  9  1  0
  7 14  1  0
  8 16  2  0
  9 15  2  0
 10 17  2  0
 11 17  1  0
 12 18  2  0
 13 14  2  0
 13 15  1  0
 14 19  1  0
 15 21  1  0
 16 18  1  0
 16 20  1  0
 17 25  1  0
 18 26  1  0
 19 20  1  0
 19 22  2  0
 21 25  2  0
 23 25  2  0
 25 24  1  6
M  CHG  1  24  -1
M  END
>  <washed_aromatic_smiles>  (582) 
c1ccc(cc1)S(=O)(=O)Nc2cccc(c2)C(=O)Nc3ccccc3Cl

>  <name>  (582) 
neg238292

$$$$
neg229817
     RDKit          3D

 30 32  0  0  0  0  0  0  0  0999 V2000
    5.2590    8.6800   59.1100 C   0  0  0  0  0  0  0  0  0  0  0  0
    0.4380    8.4440   53.6970 C   0  0  0  0  0  0  0  0  0  0  0  0
    0.1130    7.4570   52.7780 C   0  0  0  0  0  0  0  0  0  0  0  0
    5.3090    9.9350   58.5160 C   0  0  0  0  0  0  0  0  0  0  0  0
    4.9930    7.5590   58.3360 C   0  0  0  0  0  0  0  0  0  0  0  0
    1.7460    8.5870   54.1530 C   0  0  0  0  0  0  0  0  0  0  0  0
    1.0760    6.5780   52.3490 C   0  0  0  0  0  0  0  0  0  0  0  0
    5.1580   10.0580   57.1380 C   0  0  0  0  0  0  0  0  0  0  0  0
    4.8130    7.6890   56.9650 C   0  0  0  0  0  0  0  0  0  0  0  0
    2.7760    7.7440   53.6760 C   0  0  0  0  0  0  0  0  0  0  0  0
    2.3760    6.7130   52.7700 C   0  0  0  0  0  0  0  0  0  0  0  0
    4.9470    8.9310   56.3430 C   0  0  0  0  0  0  0  0  0  0  0  0
    1.9720    0.5360   52.1460 C   0  0  0  0  0  0  0  0  0  0  0  0
    2.3080    2.2910   50.6560 C   0  0  0  0  0  0  0  0  0  0  0  0
    2.2750    4.6040   49.8360 C   0  0  0  0  0  0  0  0  0  0  0  0
    3.1400    5.7500   50.3040 C   0  0  0  0  0  0  0  0  0  0  0  0
    2.1270   -0.5000   53.2280 C   0  0  0  0  0  0  0  0  0  0  0  0
    0.9030    0.8020   51.4500 N   0  0  0  0  0  0  0  0  0  0  0  0
    1.0950    1.8380   50.5620 N   0  0  0  0  0  0  0  0  0  0  0  0
    4.0760    7.8950   53.9670 N   0  0  0  0  0  0  0  0  0  0  0  0
    2.8840    3.4130   50.0570 N   0  0  0  0  0  0  0  0  0  0  0  0
    1.1280    4.6790   49.4450 O   0  0  0  0  0  0  0  0  0  0  0  0
    6.3120    8.9600   54.1320 O   0  0  0  0  0  0  0  0  0  0  0  0
    4.3260   10.3680   54.2450 O   0  0  0  0  0  0  0  0  0  0  0  0
    2.6830   -1.6060   52.7490 F   0  0  0  0  0  0  0  0  0  0  0  0
    2.9090   -0.0840   54.2340 F   0  0  0  0  0  0  0  0  0  0  0  0
    0.9750   -0.8380   53.7760 F   0  0  0  0  0  0  0  0  0  0  0  0
    3.3270    1.4780   51.7420 S   0  0  0  0  0  0  0  0  0  0  0  0
    3.5100    5.6020   52.0950 S   0  0  0  0  0  0  0  0  0  0  0  0
    4.9480    9.1140   54.5560 S   0  0  2  0  0  0  0  0  0  0  0  0
  1  4  2  0
  1  5  1  0
  2  3  2  0
  2  6  1  0
  3  7  1  0
  4  8  1  0
  5  9  2  0
  6 10  2  0
  7 11  2  0
  8 12  2  0
  9 12  1  0
 10 11  1  0
 10 20  1  0
 11 29  1  0
 12 30  1  0
 13 17  1  0
 13 18  2  0
 13 28  1  0
 14 19  2  0
 14 21  1  0
 14 28  1  0
 15 16  1  0
 15 21  1  0
 15 22  2  0
 16 29  1  0
 17 25  1  0
 17 26  1  0
 17 27  1  0
 18 19  1  0
 20 30  2  0
 23 30  2  0
 30 24  1  1
M  CHG  1  24  -1
M  END
>  <washed_aromatic_smiles>  (583) 
c1ccc(cc1)S(=O)(=O)Nc2ccccc2SCC(=O)Nc3nnc(s3)C(F)(F)F

>  <name>  (583) 
neg229817

$$$$
neg164038
     RDKit          3D

 27 29  0  0  0  0  0  0  0  0999 V2000
    2.5610   -0.0510   52.7690 C   0  0  0  0  0  0  0  0  0  0  0  0
    1.1890   -0.0550   52.5420 C   0  0  0  0  0  0  0  0  0  0  0  0
    3.4100    0.4570   51.7950 C   0  0  0  0  0  0  0  0  0  0  0  0
    3.3860    6.4730   53.6180 C   0  0  0  0  0  0  0  0  0  0  0  0
    3.0970    8.1750   51.9770 C   0  0  0  0  0  0  0  0  0  0  0  0
    3.2610    5.4930   52.6270 C   0  0  0  0  0  0  0  0  0  0  0  0
    3.0240    7.2130   50.9790 C   0  0  0  0  0  0  0  0  0  0  0  0
    4.4050   11.0020   56.3460 C   0  0  0  0  0  0  0  0  0  0  0  0
    4.7120    9.0570   57.7670 C   0  0  0  0  0  0  0  0  0  0  0  0
    4.9110   11.8190   57.3420 C   0  0  0  0  0  0  0  0  0  0  0  0
    5.2260    9.8790   58.7640 C   0  0  0  0  0  0  0  0  0  0  0  0
    0.6590    0.4650   51.3640 C   0  0  0  0  0  0  0  0  0  0  0  0
    2.8910    0.9550   50.6140 C   0  0  0  0  0  0  0  0  0  0  0  0
    3.3870    7.8300   53.2920 C   0  0  0  0  0  0  0  0  0  0  0  0
    4.2990    9.6160   56.5540 C   0  0  0  0  0  0  0  0  0  0  0  0
    3.1050    5.8750   51.2980 C   0  0  0  0  0  0  0  0  0  0  0  0
    5.3090   11.2560   58.5460 C   0  0  0  0  0  0  0  0  0  0  0  0
    1.5160    0.9930   50.3920 C   0  0  0  0  0  0  0  0  0  0  0  0
    3.8460    8.8870   54.1890 C   0  0  0  0  0  0  0  0  0  0  0  0
    2.0290    4.0540   50.0920 C   0  0  0  0  0  0  0  0  0  0  0  0
    1.9300    3.2550   48.8040 C   0  0  0  0  0  0  0  0  0  0  0  0
    3.7740    8.7210   55.5660 N   0  0  0  0  0  0  0  0  0  0  0  0
    3.0420    4.9610   50.2260 N   0  0  0  0  0  0  0  0  0  0  0  0
    4.3670    9.9060   53.7450 O   0  0  0  0  0  0  0  0  0  0  0  0
    1.2260    3.9600   50.9880 O   0  0  0  0  0  0  0  0  0  0  0  0
    5.8000   12.0900   59.5070 O   0  0  0  0  0  0  0  0  0  0  0  0
    0.9130    1.7250   48.9230 S   0  0  0  0  0  0  0  0  0  0  0  0
  1  2  2  0
  1  3  1  0
  2 12  1  0
  3 13  2  0
  4  6  2  0
  4 14  1  0
  5  7  1  0
  5 14  2  0
  6 16  1  0
  7 16  2  0
  8 10  2  0
  8 15  1  0
  9 11  1  0
  9 15  2  0
 10 17  1  0
 11 17  2  0
 12 18  2  0
 13 18  1  0
 14 19  1  0
 15 22  1  0
 16 23  1  0
 17 26  1  0
 18 27  1  0
 19 22  1  0
 19 24  2  0
 20 21  1  0
 20 23  1  0
 20 25  2  0
 21 27  1  0
M  END
>  <washed_aromatic_smiles>  (584) 
c1ccc(cc1)SCC(=O)Nc2ccc(cc2)C(=O)Nc3ccc(cc3)O

>  <name>  (584) 
neg164038

$$$$
neg179039
     RDKit          3D

 30 33  0  0  0  0  0  0  0  0999 V2000
    2.2540   -0.6220   51.1930 C   0  0  0  0  0  0  0  0  0  0  0  0
    2.6530    0.2050   54.0240 C   0  0  0  0  0  0  0  0  0  0  0  0
    4.5070   10.9440   53.6970 C   0  0  0  0  0  0  0  0  0  0  0  0
    4.7250    9.3200   56.1600 C   0  0  0  0  0  0  0  0  0  0  0  0
    2.2700    3.7210   47.7550 C   0  0  0  0  0  0  0  0  0  0  0  0
    3.4140    4.4840   47.9460 C   0  0  0  0  0  0  0  0  0  0  0  0
    1.1870    3.8740   48.5930 C   0  0  0  0  0  0  0  0  0  0  0  0
    2.7360    1.5710   50.5870 C   0  0  0  0  0  0  0  0  0  0  0  0
    3.4690    5.4260   48.9690 C   0  0  0  0  0  0  0  0  0  0  0  0
    1.2340    4.8060   49.6210 C   0  0  0  0  0  0  0  0  0  0  0  0
    3.0010    2.8780   50.8630 C   0  0  0  0  0  0  0  0  0  0  0  0
    2.8640    2.4950   53.1610 C   0  0  0  0  0  0  0  0  0  0  0  0
    3.1620    9.1120   52.7900 C   0  0  0  0  0  0  0  0  0  0  0  0
    3.8830    7.4540   54.8390 C   0  0  0  0  0  0  0  0  0  0  0  0
    2.5490    0.6890   51.6160 C   0  0  0  0  0  0  0  0  0  0  0  0
    2.6860    1.1320   52.9270 C   0  0  0  0  0  0  0  0  0  0  0  0
    3.9330    9.6240   53.8120 C   0  0  0  0  0  0  0  0  0  0  0  0
    4.1820    8.7970   54.9320 C   0  0  0  0  0  0  0  0  0  0  0  0
    2.4150    5.4810   49.8870 C   0  0  0  0  0  0  0  0  0  0  0  0
    2.9460    3.4590   52.1230 C   0  0  0  0  0  0  0  0  0  0  0  0
    3.0250    7.7260   52.6130 C   0  0  0  0  0  0  0  0  0  0  0  0
    3.5130    6.8730   53.5990 C   0  0  0  0  0  0  0  0  0  0  0  0
    2.6560    5.9350   51.2310 C   0  0  0  0  0  0  0  0  0  0  0  0
    3.0830    4.9950   52.2520 C   0  0  0  0  0  0  0  0  0  0  0  0
    2.0160   -1.6210   50.7260 N   0  0  0  0  0  0  0  0  0  0  0  0
    2.6440   -0.5440   54.8830 N   0  0  0  0  0  0  0  0  0  0  0  0
    4.9710   11.9840   53.6080 N   0  0  0  0  0  0  0  0  0  0  0  0
    5.1550    9.7290   57.1360 N   0  0  0  0  0  0  0  0  0  0  0  0
    2.5780    7.2150   51.4450 N   0  0  0  0  0  0  0  0  0  0  0  0
    3.6370    5.5270   53.3210 N   0  0  0  0  0  0  0  0  0  0  0  0
  1 15  1  0
  1 25  3  0
  2 16  1  0
  2 26  3  0
  3 17  1  0
  3 27  3  0
  4 18  1  0
  4 28  3  0
  5  6  2  0
  5  7  1  0
  6  9  1  0
  7 10  2  0
  8 11  2  0
  8 15  1  0
  9 19  2  0
 10 19  1  0
 11 20  1  0
 12 16  1  0
 12 20  2  0
 13 17  2  0
 13 21  1  0
 14 18  2  0
 14 22  1  0
 15 16  2  0
 17 18  1  0
 19 23  1  0
 20 24  1  0
 21 22  2  0
 21 29  1  0
 22 30  1  0
 23 24  1  0
 23 29  2  0
 24 30  2  0
M  END
>  <washed_aromatic_smiles>  (585) 
c1ccc(cc1)c2c(nc3cc(c(cc3n2)C#N)C#N)c4ccc(c(c4)C#N)C#N

>  <name>  (585) 
neg179039

$$$$
neg270342
     RDKit          3D

 27 30  0  0  0  0  0  0  0  0999 V2000
    0.2010   -0.5500   48.6350 C   0  0  0  0  0  0  0  0  0  0  0  0
    0.0570    0.6030   47.8770 C   0  0  0  0  0  0  0  0  0  0  0  0
    1.1090   -0.5960   49.6820 C   0  0  0  0  0  0  0  0  0  0  0  0
    5.4250    9.6030   58.4980 C   0  0  0  0  0  0  0  0  0  0  0  0
    0.7710    1.7400   48.2150 C   0  0  0  0  0  0  0  0  0  0  0  0
    1.8200    0.5370   50.0260 C   0  0  0  0  0  0  0  0  0  0  0  0
    2.5390    4.0140   48.9380 C   0  0  0  0  0  0  0  0  0  0  0  0
    2.3720    3.1520   51.1720 C   0  0  0  0  0  0  0  0  0  0  0  0
    2.8390    5.2610   49.4550 C   0  0  0  0  0  0  0  0  0  0  0  0
    2.6470    4.4020   51.6810 C   0  0  0  0  0  0  0  0  0  0  0  0
    5.4310    9.1690   57.1730 C   0  0  0  0  0  0  0  0  0  0  0  0
    4.9360   10.8650   58.4980 C   0  0  0  0  0  0  0  0  0  0  0  0
    1.6280    1.7290   49.3210 C   0  0  0  0  0  0  0  0  0  0  0  0
    2.2170    2.9630   49.8000 C   0  0  0  0  0  0  0  0  0  0  0  0
    2.8040    5.4970   50.8400 C   0  0  0  0  0  0  0  0  0  0  0  0
    4.9190   10.1800   56.4100 C   0  0  0  0  0  0  0  0  0  0  0  0
    2.9090    6.8650   51.3360 C   0  0  0  0  0  0  0  0  0  0  0  0
    4.6360   10.3340   54.9870 C   0  0  0  0  0  0  0  0  0  0  0  0
    3.3350    6.8810   53.8050 C   0  0  0  0  0  0  0  0  0  0  0  0
    2.1180    8.6670   52.8650 C   0  0  0  0  0  0  0  0  0  0  0  0
    4.3650    7.9050   54.3680 C   0  0  0  0  0  0  0  0  0  0  0  0
    3.3280    9.6000   53.0040 C   0  0  0  0  0  0  0  0  0  0  0  0
    2.5600    7.2880   52.6300 N   0  0  0  0  0  0  0  0  0  0  0  0
    4.0250    9.3220   54.2520 N   0  0  0  0  0  0  0  0  0  0  0  0
    3.3120    7.7090   50.5640 O   0  0  0  0  0  0  0  0  0  0  0  0
    4.8570   11.4030   54.4140 O   0  0  0  0  0  0  0  0  0  0  0  0
    4.6310   11.2330   57.2390 O   0  0  0  0  0  0  0  0  0  0  0  0
  1  2  2  0
  1  3  1  0
  2  5  1  0
  3  6  2  0
  4 11  1  0
  4 12  2  0
  5 13  2  0
  6 13  1  0
  7  9  2  0
  7 14  1  0
  8 10  1  0
  8 14  2  0
  9 15  1  0
 10 15  2  0
 11 16  2  0
 12 27  1  0
 13 14  1  0
 15 17  1  0
 16 18  1  0
 16 27  1  0
 17 23  1  0
 17 25  2  0
 18 24  1  0
 18 26  2  0
 19 21  1  0
 19 23  1  0
 20 22  1  0
 20 23  1  0
 21 24  1  0
 22 24  1  0
M  END
>  <washed_aromatic_smiles>  (586) 
c1ccc(cc1)c2ccc(cc2)C(=O)N3CCN(CC3)C(=O)c4ccco4

>  <name>  (586) 
neg270342

$$$$
neg219106
     RDKit          3D

 28 30  0  0  0  0  0  0  0  0999 V2000
    6.0060   13.1230   58.9400 C   0  0  0  0  0  0  0  0  0  0  0  0
    5.6950   11.7860   59.1190 C   0  0  0  0  0  0  0  0  0  0  0  0
    5.7810   13.7120   57.7050 C   0  0  0  0  0  0  0  0  0  0  0  0
    5.1860   11.0350   58.0800 C   0  0  0  0  0  0  0  0  0  0  0  0
    5.2830   12.9620   56.6410 C   0  0  0  0  0  0  0  0  0  0  0  0
    3.3630    9.9170   56.1090 C   0  0  0  0  0  0  0  0  0  0  0  0
    5.0050   10.6670   54.5070 C   0  0  0  0  0  0  0  0  0  0  0  0
    2.9430    8.9460   55.2240 C   0  0  0  0  0  0  0  0  0  0  0  0
    4.5790    9.6880   53.6170 C   0  0  0  0  0  0  0  0  0  0  0  0
    2.5350    3.5600   51.2400 C   0  0  0  0  0  0  0  0  0  0  0  0
    1.9130    4.2280   48.9950 C   0  0  0  0  0  0  0  0  0  0  0  0
    2.0800    2.2750   50.9810 C   0  0  0  0  0  0  0  0  0  0  0  0
    1.4480    2.9390   48.7500 C   0  0  0  0  0  0  0  0  0  0  0  0
    4.9770   11.6080   56.8260 C   0  0  0  0  0  0  0  0  0  0  0  0
    4.4390   10.7500   55.7860 C   0  0  0  0  0  0  0  0  0  0  0  0
    3.5910    8.7730   54.0020 C   0  0  0  0  0  0  0  0  0  0  0  0
    2.4280    4.5390   50.2540 C   0  0  0  0  0  0  0  0  0  0  0  0
    1.5000    1.9610   49.7510 C   0  0  0  0  0  0  0  0  0  0  0  0
    3.2680    7.5830   53.2430 C   0  0  0  0  0  0  0  0  0  0  0  0
    2.0300    6.6020   51.4540 C   0  0  0  0  0  0  0  0  0  0  0  0
   -0.6300    0.4390   50.3790 N   0  0  0  0  0  0  0  0  0  0  0  0
    2.8040    5.8540   50.5650 N   0  0  0  0  0  0  0  0  0  0  0  0
    2.7240    7.6830   51.9900 N   0  0  0  0  0  0  0  0  0  0  0  0
    3.4320    6.4660   53.7100 O   0  0  0  0  0  0  0  0  0  0  0  0
    0.4900    0.1680   48.1380 O   0  0  0  0  0  0  0  0  0  0  0  0
    1.6340   -0.6230   50.1310 O   0  0  0  0  0  0  0  0  0  0  0  0
    0.4570    6.2440   51.9260 S   0  0  0  0  0  0  0  0  0  0  0  0
    0.7780    0.3390   49.5230 S   0  0  0  0  0  0  0  0  0  0  0  0
  1  2  2  0
  1  3  1  0
  2  4  1  0
  3  5  2  0
  4 14  2  0
  5 14  1  0
  6  8  2  0
  6 15  1  0
  7  9  1  0
  7 15  2  0
  8 16  1  0
  9 16  2  0
 10 12  2  0
 10 17  1  0
 11 13  1  0
 11 17  2  0
 12 18  1  0
 13 18  2  0
 14 15  1  0
 16 19  1  0
 17 22  1  0
 18 28  1  0
 19 23  1  0
 19 24  2  0
 20 22  1  0
 20 23  1  0
 20 27  2  0
 21 28  1  0
 25 28  2  0
 26 28  2  0
M  END
>  <washed_aromatic_smiles>  (587) 
c1ccc(cc1)c2ccc(cc2)C(=O)NC(=S)Nc3ccc(cc3)S(=O)(=O)N

>  <name>  (587) 
neg219106

$$$$
neg106124
     RDKit          3D

 26 28  0  0  0  0  0  0  0  0999 V2000
    5.4650   11.3410   58.8070 C   0  0  0  0  0  0  0  0  0  0  0  0
    5.0680   11.9610   57.6280 C   0  0  0  0  0  0  0  0  0  0  0  0
    5.3490    9.9590   58.9390 C   0  0  0  0  0  0  0  0  0  0  0  0
    4.5100   11.2070   56.6050 C   0  0  0  0  0  0  0  0  0  0  0  0
    4.7930    9.2040   57.9190 C   0  0  0  0  0  0  0  0  0  0  0  0
    2.2850    9.0360   55.6680 C   0  0  0  0  0  0  0  0  0  0  0  0
    4.4000    8.2810   54.8260 C   0  0  0  0  0  0  0  0  0  0  0  0
    1.6210    8.3620   54.6510 C   0  0  0  0  0  0  0  0  0  0  0  0
    3.7360    7.5410   53.8630 C   0  0  0  0  0  0  0  0  0  0  0  0
    1.4540    3.2870   48.8070 C   0  0  0  0  0  0  0  0  0  0  0  0
    0.9040    2.5130   47.8050 C   0  0  0  0  0  0  0  0  0  0  0  0
    0.8270    0.5930   49.2830 C   0  0  0  0  0  0  0  0  0  0  0  0
    4.3430    9.8260   56.7550 C   0  0  0  0  0  0  0  0  0  0  0  0
    3.6770    9.0460   55.7350 C   0  0  0  0  0  0  0  0  0  0  0  0
    2.3410    7.5960   53.7270 C   0  0  0  0  0  0  0  0  0  0  0  0
    1.6770    2.7430   50.0800 C   0  0  0  0  0  0  0  0  0  0  0  0
    0.6070    1.1810   48.0450 C   0  0  0  0  0  0  0  0  0  0  0  0
    1.3530    1.3840   50.2970 C   0  0  0  0  0  0  0  0  0  0  0  0
    1.6590    6.8410   52.6770 C   0  0  0  0  0  0  0  0  0  0  0  0
    2.1950    3.5980   51.1300 C   0  0  0  0  0  0  0  0  0  0  0  0
    2.3730    5.8340   52.0910 N   0  0  0  0  0  0  0  0  0  0  0  0
    1.8170    4.9160   51.1260 N   0  0  0  0  0  0  0  0  0  0  0  0
    0.4880    7.0320   52.3310 O   0  0  0  0  0  0  0  0  0  0  0  0
    2.9180    3.1930   52.0410 O   0  0  0  0  0  0  0  0  0  0  0  0
    0.0890    0.4660   47.0370 O   0  0  0  0  0  0  0  0  0  0  0  0
    1.5150    0.8000   51.5200 O   0  0  0  0  0  0  0  0  0  0  0  0
  1  2  2  0
  1  3  1  0
  2  4  1  0
  3  5  2  0
  4 13  2  0
  5 13  1  0
  6  8  2  0
  6 14  1  0
  7  9  1  0
  7 14  2  0
  8 15  1  0
  9 15  2  0
 10 11  2  0
 10 16  1  0
 11 17  1  0
 12 17  2  0
 12 18  1  0
 13 14  1  0
 15 19  1  0
 16 18  2  0
 16 20  1  0
 17 25  1  0
 18 26  1  0
 19 21  1  0
 19 23  2  0
 20 22  1  0
 20 24  2  0
 21 22  1  0
M  END
>  <washed_aromatic_smiles>  (588) 
c1ccc(cc1)c2ccc(cc2)C(=O)NNC(=O)c3ccc(cc3O)O

>  <name>  (588) 
neg106124

$$$$
neg123637
     RDKit          3D

 36 40  0  0  0  0  0  0  0  0999 V2000
    6.2830   -2.4670   61.0090 C   0  0  0  0  0  0  0  0  0  0  0  0
    5.1110    9.0520   58.6420 C   0  0  0  0  0  0  0  0  0  0  0  0
    5.3660   -3.0070   60.1160 C   0  0  0  0  0  0  0  0  0  0  0  0
    6.7290   -1.1640   60.8270 C   0  0  0  0  0  0  0  0  0  0  0  0
    5.1710    7.7470   58.1760 C   0  0  0  0  0  0  0  0  0  0  0  0
    4.4630   10.0170   57.8850 C   0  0  0  0  0  0  0  0  0  0  0  0
    4.0330    1.8930   56.8110 C   0  0  0  0  0  0  0  0  0  0  0  0
    2.6670    8.8480   52.6160 C   0  0  0  0  0  0  0  0  0  0  0  0
    4.9160   -2.2600   59.0340 C   0  0  0  0  0  0  0  0  0  0  0  0
    6.2720   -0.4150   59.7490 C   0  0  0  0  0  0  0  0  0  0  0  0
    4.6180    7.4180   56.9440 C   0  0  0  0  0  0  0  0  0  0  0  0
    3.9120    9.6880   56.6520 C   0  0  0  0  0  0  0  0  0  0  0  0
    4.7080    1.2010   57.7970 C   0  0  0  0  0  0  0  0  0  0  0  0
    3.2190    9.1060   53.8590 C   0  0  0  0  0  0  0  0  0  0  0  0
    3.4660    1.2350   55.7340 C   0  0  0  0  0  0  0  0  0  0  0  0
    2.5690    7.5530   52.1210 C   0  0  0  0  0  0  0  0  0  0  0  0
    4.5210   -0.7900   56.4650 C   0  0  0  0  0  0  0  0  0  0  0  0
    3.3730    6.7730   54.2480 C   0  0  0  0  0  0  0  0  0  0  0  0
    5.3850   -0.9590   58.8130 C   0  0  0  0  0  0  0  0  0  0  0  0
    4.0150    8.3870   56.1210 C   0  0  0  0  0  0  0  0  0  0  0  0
    4.8950   -0.1760   57.6710 C   0  0  0  0  0  0  0  0  0  0  0  0
    3.5280    8.0750   54.7450 C   0  0  0  0  0  0  0  0  0  0  0  0
    3.7140   -0.1240   55.5210 C   0  0  0  0  0  0  0  0  0  0  0  0
    2.9920    6.5100   52.9210 C   0  0  0  0  0  0  0  0  0  0  0  0
    2.8170   -0.8770   53.0330 C   0  0  0  0  0  0  0  0  0  0  0  0
    2.5850    4.4530   51.3180 C   0  0  0  0  0  0  0  0  0  0  0  0
    1.9870    1.2870   52.8910 C   0  0  0  0  0  0  0  0  0  0  0  0
    2.7990    0.5000   50.8140 C   0  0  0  0  0  0  0  0  0  0  0  0
    2.9530    2.4430   52.6960 C   0  0  0  0  0  0  0  0  0  0  0  0
    2.4610    2.0020   50.3540 C   0  0  0  0  0  0  0  0  0  0  0  0
    2.6510    0.2460   52.2920 N   0  0  0  0  0  0  0  0  0  0  0  0
    2.7600    3.0550   51.3970 N   0  0  0  0  0  0  0  0  0  0  0  0
    3.1570   -0.9390   54.4260 N   0  0  0  0  0  0  0  0  0  0  0  0
    3.0990    5.1680   52.4270 N   0  0  0  0  0  0  0  0  0  0  0  0
    2.6380   -1.9150   52.4460 O   0  0  0  0  0  0  0  0  0  0  0  0
    2.0260    4.9870   50.3640 O   0  0  0  0  0  0  0  0  0  0  0  0
  1  3  2  0
  1  4  1  0
  2  5  2  0
  2  6  1  0
  3  9  1  0
  4 10  2  0
  5 11  1  0
  6 12  2  0
  7 13  2  0
  7 15  1  0
  8 14  2  0
  8 16  1  0
  9 19  2  0
 10 19  1  0
 11 20  2  0
 12 20  1  0
 13 21  1  0
 14 22  1  0
 15 23  2  0
 16 24  2  0
 17 21  2  0
 17 23  1  0
 18 22  2  0
 18 24  1  0
 19 21  1  0
 20 22  1  0
 23 33  1  0
 24 34  1  0
 25 31  1  0
 25 33  1  0
 25 35  2  0
 26 32  1  0
 26 34  1  0
 26 36  2  0
 27 29  1  0
 27 31  1  0
 28 30  1  0
 28 31  1  0
 29 32  1  0
 30 32  1  0
M  END
>  <washed_aromatic_smiles>  (589) 
c1ccc(cc1)c2cccc(c2)NC(=O)N3CCN(CC3)C(=O)Nc4cccc(c4)c5ccccc5

>  <name>  (589) 
neg123637

$$$$
neg124183
     RDKit          3D

 30 33  0  0  0  0  0  0  0  0999 V2000
    6.3670    9.9760   53.3690 C   0  0  0  0  0  0  0  0  0  0  0  0
    1.2610    0.0630   53.0000 C   0  0  0  0  0  0  0  0  0  0  0  0
    6.2710    8.9950   54.3440 C   0  0  0  0  0  0  0  0  0  0  0  0
    5.2210   10.5650   52.8750 C   0  0  0  0  0  0  0  0  0  0  0  0
    2.4530    0.7620   53.1460 C   0  0  0  0  0  0  0  0  0  0  0  0
    0.4160    0.3560   51.9350 C   0  0  0  0  0  0  0  0  0  0  0  0
    1.1560    8.9920   57.0400 C   0  0  0  0  0  0  0  0  0  0  0  0
    3.1520    3.7040   48.0400 C   0  0  0  0  0  0  0  0  0  0  0  0
    0.0470    8.6700   56.2650 C   0  0  0  0  0  0  0  0  0  0  0  0
    3.3040    5.0260   48.4380 C   0  0  0  0  0  0  0  0  0  0  0  0
    5.0430    8.6710   54.9050 C   0  0  0  0  0  0  0  0  0  0  0  0
    3.9870   10.1970   53.3820 C   0  0  0  0  0  0  0  0  0  0  0  0
    2.7900    1.7540   52.2350 C   0  0  0  0  0  0  0  0  0  0  0  0
    0.7660    1.3250   51.0070 C   0  0  0  0  0  0  0  0  0  0  0  0
    2.4100    9.1930   56.4620 C   0  0  0  0  0  0  0  0  0  0  0  0
    2.6300    2.7610   48.9170 C   0  0  0  0  0  0  0  0  0  0  0  0
    0.2070    8.5230   54.8940 C   0  0  0  0  0  0  0  0  0  0  0  0
    2.9250    5.4150   49.7000 C   0  0  0  0  0  0  0  0  0  0  0  0
    3.8800    9.2950   54.4500 C   0  0  0  0  0  0  0  0  0  0  0  0
    1.9420    2.0620   51.1630 C   0  0  0  0  0  0  0  0  0  0  0  0
    2.5880    9.0350   55.0810 C   0  0  0  0  0  0  0  0  0  0  0  0
    2.2950    3.1120   50.2190 C   0  0  0  0  0  0  0  0  0  0  0  0
    1.4710    8.6450   54.3260 C   0  0  0  0  0  0  0  0  0  0  0  0
    2.3670    4.4720   50.5590 C   0  0  0  0  0  0  0  0  0  0  0  0
    1.1730    7.1220   52.5260 C   0  0  0  0  0  0  0  0  0  0  0  0
    2.1770    6.0930   52.3180 C   0  0  0  0  0  0  0  0  0  0  0  0
    1.6450    8.3240   52.9770 N   0  0  0  0  0  0  0  0  0  0  0  0
    1.7570    4.9430   51.7150 N   0  0  0  0  0  0  0  0  0  0  0  0
   -0.0300    6.9580   52.3400 O   0  0  0  0  0  0  0  0  0  0  0  0
    3.3600    6.2010   52.6310 O   0  0  0  0  0  0  0  0  0  0  0  0
  1  3  2  0
  1  4  1  0
  2  5  2  0
  2  6  1  0
  3 11  1  0
  4 12  2  0
  5 13  1  0
  6 14  2  0
  7  9  2  0
  7 15  1  0
  8 10  2  0
  8 16  1  0
  9 17  1  0
 10 18  1  0
 11 19  2  0
 12 19  1  0
 13 20  2  0
 14 20  1  0
 15 21  2  0
 16 22  2  0
 17 23  2  0
 18 24  2  0
 19 21  1  0
 20 22  1  0
 21 23  1  0
 22 24  1  0
 23 27  1  0
 24 28  1  0
 25 26  1  0
 25 27  1  0
 25 29  2  0
 26 28  1  0
 26 30  2  0
M  END
>  <washed_aromatic_smiles>  (590) 
c1ccc(cc1)c2ccccc2NC(=O)C(=O)Nc3ccccc3c4ccccc4

>  <name>  (590) 
neg124183

$$$$
neg133156
     RDKit          3D

 25 27  0  0  0  0  0  0  0  0999 V2000
    2.0130    6.5570   52.3520 C   0  0  0  0  0  0  0  0  0  0  0  0
    0.8390    6.4590   51.6210 C   0  0  0  0  0  0  0  0  0  0  0  0
    3.1440    5.8930   51.8950 C   0  0  0  0  0  0  0  0  0  0  0  0
    0.6040    2.5760   47.3890 C   0  0  0  0  0  0  0  0  0  0  0  0
    0.6670    1.3420   48.0320 C   0  0  0  0  0  0  0  0  0  0  0  0
    3.0770   -1.3230   54.1060 C   0  0  0  0  0  0  0  0  0  0  0  0
    0.7950    5.6470   50.4950 C   0  0  0  0  0  0  0  0  0  0  0  0
    3.0830    5.1180   50.7430 C   0  0  0  0  0  0  0  0  0  0  0  0
    1.1270    3.7160   47.9990 C   0  0  0  0  0  0  0  0  0  0  0  0
    3.3620   -0.5780   55.2380 C   0  0  0  0  0  0  0  0  0  0  0  0
    1.2990    1.2340   49.2420 C   0  0  0  0  0  0  0  0  0  0  0  0
    2.5400   -0.7740   52.9840 C   0  0  0  0  0  0  0  0  0  0  0  0
    2.7920    1.3780   54.0010 C   0  0  0  0  0  0  0  0  0  0  0  0
    1.8670    4.8400   50.1240 C   0  0  0  0  0  0  0  0  0  0  0  0
    1.6690    3.6610   49.2820 C   0  0  0  0  0  0  0  0  0  0  0  0
    3.1490    0.7960   55.2200 C   0  0  0  0  0  0  0  0  0  0  0  0
    1.9180    2.3700   49.8400 C   0  0  0  0  0  0  0  0  0  0  0  0
    2.6510    0.5810   52.8820 C   0  0  0  0  0  0  0  0  0  0  0  0
    3.4500    1.6200   56.3770 C   0  0  0  0  0  0  0  0  0  0  0  0
    2.7430    2.2820   50.8540 N   0  0  0  0  0  0  0  0  0  0  0  0
    3.2130    2.8360   56.2820 O   0  0  0  0  0  0  0  0  0  0  0  0
    3.5000   -0.0920   50.5640 O   0  0  0  0  0  0  0  0  0  0  0  0
    4.8110    1.4140   51.8970 O   0  0  0  0  0  0  0  0  0  0  0  0
    3.9590    1.1250   57.4200 O   0  0  0  0  0  0  0  0  0  0  0  0
    3.5230    1.0240   51.4460 S   0  0  2  0  0  0  0  0  0  0  0  0
  1  2  2  0
  1  3  1  0
  2  7  1  0
  3  8  2  0
  4  5  2  0
  4  9  1  0
  5 11  1  0
  6 10  2  0
  6 12  1  0
  7 14  2  0
  8 14  1  0
  9 15  2  0
 10 16  1  0
 11 17  2  0
 12 18  2  0
 13 16  2  0
 13 18  1  0
 14 15  1  0
 15 17  1  0
 16 19  1  0
 17 20  1  0
 18 25  1  0
 19 21  1  0
 19 24  2  0
 20 25  2  0
 22 25  2  0
 25 23  1  1
M  CHG  2  21  -1  23  -1
M  END
>  <washed_aromatic_smiles>  (591) 
c1ccc(cc1)c2ccccc2NS(=O)(=O)c3cccc(c3)C(=O)O

>  <name>  (591) 
neg133156

$$$$
neg287108
     RDKit          3D

 27 30  0  0  0  0  0  0  0  0999 V2000
    0.3250    0.7300   47.2170 C   0  0  0  0  0  0  0  0  0  0  0  0
    5.6360   13.0220   58.1700 C   0  0  0  0  0  0  0  0  0  0  0  0
    0.6760   -0.0550   48.3100 C   0  0  0  0  0  0  0  0  0  0  0  0
    0.4120    2.1090   47.2780 C   0  0  0  0  0  0  0  0  0  0  0  0
    5.4720   11.8290   58.8660 C   0  0  0  0  0  0  0  0  0  0  0  0
    5.3830   13.0630   56.8040 C   0  0  0  0  0  0  0  0  0  0  0  0
    1.1620    0.5480   49.4600 C   0  0  0  0  0  0  0  0  0  0  0  0
    0.9520    2.7270   48.3900 C   0  0  0  0  0  0  0  0  0  0  0  0
    5.1030   10.6670   58.1990 C   0  0  0  0  0  0  0  0  0  0  0  0
    5.0360   11.9110   56.1210 C   0  0  0  0  0  0  0  0  0  0  0  0
    2.5450    1.9450   51.6080 C   0  0  0  0  0  0  0  0  0  0  0  0
    1.3310    1.9360   49.4740 C   0  0  0  0  0  0  0  0  0  0  0  0
    4.9190   10.6990   56.8140 C   0  0  0  0  0  0  0  0  0  0  0  0
    2.7140    4.0050   51.8500 C   0  0  0  0  0  0  0  0  0  0  0  0
    2.8170    8.1200   52.5140 C   0  0  0  0  0  0  0  0  0  0  0  0
    3.1870    9.1560   56.1600 C   0  0  0  0  0  0  0  0  0  0  0  0
    5.2610    9.3550   54.8130 C   0  0  0  0  0  0  0  0  0  0  0  0
    2.7180    8.2590   54.9880 C   0  0  0  0  0  0  0  0  0  0  0  0
    4.3070    9.6420   53.6600 C   0  0  0  0  0  0  0  0  0  0  0  0
    2.0780    6.8060   52.4710 C   0  0  0  0  0  0  0  0  0  0  0  0
    3.0420    2.8050   52.4050 N   0  0  0  0  0  0  0  0  0  0  0  0
    2.0070    3.9190   50.7710 N   0  0  0  0  0  0  0  0  0  0  0  0
    1.9220    2.5760   50.6020 N   0  0  0  0  0  0  0  0  0  0  0  0
    4.6310    9.4970   56.1420 N   0  0  0  0  0  0  0  0  0  0  0  0
    3.1680    8.7140   53.6690 N   0  0  0  0  0  0  0  0  0  0  0  0
    3.3110    8.5190   51.4790 O   0  0  0  0  0  0  0  0  0  0  0  0
    3.3250    5.4920   52.5440 S   0  0  0  0  0  0  0  0  0  0  0  0
  1  3  2  0
  1  4  1  0
  2  5  2  0
  2  6  1  0
  3  7  1  0
  4  8  2  0
  5  9  1  0
  6 10  2  0
  7 12  2  0
  8 12  1  0
  9 13  2  0
 10 13  1  0
 11 21  2  0
 11 23  1  0
 12 23  1  0
 13 24  1  0
 14 21  1  0
 14 22  2  0
 14 27  1  0
 15 20  1  0
 15 25  1  0
 15 26  2  0
 16 18  1  0
 16 24  1  0
 17 19  1  0
 17 24  1  0
 18 25  1  0
 19 25  1  0
 20 27  1  0
 22 23  1  0
M  END
>  <washed_aromatic_smiles>  (592) 
c1ccc(cc1)n2cnc(n2)SCC(=O)N3CCN(CC3)c4ccccc4

>  <name>  (592) 
neg287108

$$$$
neg270235
     RDKit          3D

 28 31  0  0  0  0  0  0  0  0999 V2000
    5.7620   11.3540   53.3760 C   0  0  0  0  0  0  0  0  0  0  0  0
    2.3070   -1.2190   52.1400 C   0  0  0  0  0  0  0  0  0  0  0  0
    4.4190   11.4370   53.0710 C   0  0  0  0  0  0  0  0  0  0  0  0
    6.2970   10.1320   53.7540 C   0  0  0  0  0  0  0  0  0  0  0  0
    2.0630   -0.7210   50.8630 C   0  0  0  0  0  0  0  0  0  0  0  0
    2.6670   -0.3770   53.1850 C   0  0  0  0  0  0  0  0  0  0  0  0
    3.6310   10.2930   53.1210 C   0  0  0  0  0  0  0  0  0  0  0  0
    5.5140    8.9970   53.8970 C   0  0  0  0  0  0  0  0  0  0  0  0
    2.1860    0.6360   50.6160 C   0  0  0  0  0  0  0  0  0  0  0  0
    2.8000    0.9810   52.9530 C   0  0  0  0  0  0  0  0  0  0  0  0
    4.1730    9.0870   53.5500 C   0  0  0  0  0  0  0  0  0  0  0  0
    2.5670    1.4730   51.6640 C   0  0  0  0  0  0  0  0  0  0  0  0
    2.8830    6.1290   52.5670 C   0  0  0  0  0  0  0  0  0  0  0  0
    2.9420    4.8840   51.8200 C   0  0  0  0  0  0  0  0  0  0  0  0
    1.7470    6.9060   52.7140 C   0  0  0  0  0  0  0  0  0  0  0  0
    2.9590    4.6690   50.4380 C   0  0  0  0  0  0  0  0  0  0  0  0
    0.4390    6.5180   52.2720 C   0  0  0  0  0  0  0  0  0  0  0  0
    3.2570    5.6340   49.3960 C   0  0  0  0  0  0  0  0  0  0  0  0
    3.8560    6.7000   53.1860 N   0  0  0  0  0  0  0  0  0  0  0  0
    2.8720    3.7440   52.4110 N   0  0  0  0  0  0  0  0  0  0  0  0
    2.0300    8.0190   53.3100 N   0  0  0  0  0  0  0  0  0  0  0  0
    2.7620    3.4050   50.1920 N   0  0  0  0  0  0  0  0  0  0  0  0
    3.3500    7.9160   53.4500 N   0  0  0  0  0  0  0  0  0  0  0  0
    2.7240    2.8720   51.4130 N   0  0  0  0  0  0  0  0  0  0  0  0
   -0.4740    7.3530   52.2750 O   0  0  0  0  0  0  0  0  0  0  0  0
    3.5220    6.8240   49.6820 O   0  0  0  0  0  0  0  0  0  0  0  0
    0.2270    5.3430   51.9230 O   0  0  0  0  0  0  0  0  0  0  0  0
    3.3420    5.2370   48.2050 O   0  0  0  0  0  0  0  0  0  0  0  0
  1  3  2  0
  1  4  1  0
  2  5  2  0
  2  6  1  0
  3  7  1  0
  4  8  2  0
  5  9  1  0
  6 10  2  0
  7 11  2  0
  8 11  1  0
  9 12  2  0
 10 12  1  0
 11 23  1  0
 12 24  1  0
 13 14  1  0
 13 15  1  0
 13 19  2  0
 14 16  1  0
 14 20  2  0
 15 17  1  0
 15 21  2  0
 16 18  1  0
 16 22  2  0
 17 25  1  0
 17 27  2  0
 18 26  1  0
 18 28  2  0
 19 23  1  0
 20 24  1  0
 21 23  1  0
 22 24  1  0
M  CHG  2  25  -1  26  -1
M  END
>  <washed_aromatic_smiles>  (593) 
c1ccc(cc1)n2nc(c(n2)C(=O)O)c3c(nn(n3)c4ccccc4)C(=O)O

>  <name>  (593) 
neg270235

$$$$
neg228513
     RDKit          3D

 28 32  0  0  0  0  0  0  0  0999 V2000
   -0.1080    7.4590   52.3590 C   0  0  0  0  0  0  0  0  0  0  0  0
   -0.0530    8.8640   52.3060 C   0  0  0  0  0  0  0  0  0  0  0  0
    5.2410    5.8140   58.4260 C   0  0  0  0  0  0  0  0  0  0  0  0
    4.9380   12.8760   56.0260 C   0  0  0  0  0  0  0  0  0  0  0  0
    5.7800    6.1590   59.6560 C   0  0  0  0  0  0  0  0  0  0  0  0
    5.4270   13.3950   57.2160 C   0  0  0  0  0  0  0  0  0  0  0  0
    1.0330    6.7260   52.6230 C   0  0  0  0  0  0  0  0  0  0  0  0
    1.1350    9.5180   52.4720 C   0  0  0  0  0  0  0  0  0  0  0  0
    4.8810    6.8090   57.5230 C   0  0  0  0  0  0  0  0  0  0  0  0
    4.6750   11.5120   55.9210 C   0  0  0  0  0  0  0  0  0  0  0  0
    5.9650    7.4980   59.9780 C   0  0  0  0  0  0  0  0  0  0  0  0
    5.6570   12.5550   58.2940 C   0  0  0  0  0  0  0  0  0  0  0  0
    2.2050    7.4230   52.8600 C   0  0  0  0  0  0  0  0  0  0  0  0
    2.2600    8.7910   52.7470 C   0  0  0  0  0  0  0  0  0  0  0  0
    5.0610    8.1610   57.8390 C   0  0  0  0  0  0  0  0  0  0  0  0
    4.9150   10.6520   56.9960 C   0  0  0  0  0  0  0  0  0  0  0  0
    5.6130    8.4990   59.0680 C   0  0  0  0  0  0  0  0  0  0  0  0
    5.4170   11.1890   58.1710 C   0  0  0  0  0  0  0  0  0  0  0  0
    3.4940    6.9870   53.2640 C   0  0  0  0  0  0  0  0  0  0  0  0
    3.5890    9.2320   52.9890 C   0  0  0  0  0  0  0  0  0  0  0  0
    4.0520    8.7860   55.8060 C   0  0  0  0  0  0  0  0  0  0  0  0
    4.9950    8.4550   54.6760 C   0  0  0  0  0  0  0  0  0  0  0  0
    4.6720    9.2140   56.9120 N   0  0  0  0  0  0  0  0  0  0  0  0
    4.2470    8.1480   53.5080 N   0  0  0  0  0  0  0  0  0  0  0  0
    3.8890    5.8380   53.3120 O   0  0  0  0  0  0  0  0  0  0  0  0
    4.0940   10.3420   52.8820 O   0  0  0  0  0  0  0  0  0  0  0  0
    2.8360    8.6790   55.8150 O   0  0  0  0  0  0  0  0  0  0  0  0
    5.8550   10.1610   59.4690 S   0  0  0  0  0  0  0  0  0  0  0  0
  1  2  2  0
  1  7  1  0
  2  8  1  0
  3  5  2  0
  3  9  1  0
  4  6  2  0
  4 10  1  0
  5 11  1  0
  6 12  1  0
  7 13  2  0
  8 14  2  0
  9 15  2  0
 10 16  2  0
 11 17  2  0
 12 18  2  0
 13 14  1  0
 13 19  1  0
 14 20  1  0
 15 17  1  0
 15 23  1  0
 16 18  1  0
 16 23  1  0
 17 28  1  0
 18 28  1  0
 19 24  1  0
 19 25  2  0
 20 24  1  0
 20 26  2  0
 21 22  1  0
 21 23  1  0
 21 27  2  0
 22 24  1  0
M  END
>  <washed_aromatic_smiles>  (594) 
c1ccc2c(c1)C(=O)N(C2=O)CC(=O)N3c4ccccc4Sc5c3cccc5

>  <name>  (594) 
neg228513

$$$$
neg262157
     RDKit          3D

 30 33  0  0  0  0  0  0  0  0999 V2000
    5.2870   12.5990   55.1460 C   0  0  0  0  0  0  0  0  0  0  0  0
    5.1510   12.1680   56.4720 C   0  0  0  0  0  0  0  0  0  0  0  0
    2.0520    4.4120   48.1040 C   0  0  0  0  0  0  0  0  0  0  0  0
    2.8280    5.5200   48.4570 C   0  0  0  0  0  0  0  0  0  0  0  0
    4.9590   11.7500   54.0910 C   0  0  0  0  0  0  0  0  0  0  0  0
    4.6860   10.8840   56.7530 C   0  0  0  0  0  0  0  0  0  0  0  0
    1.6240    3.5350   49.0610 C   0  0  0  0  0  0  0  0  0  0  0  0
    3.0580    5.8190   49.7880 C   0  0  0  0  0  0  0  0  0  0  0  0
    4.4800   10.4730   54.3840 C   0  0  0  0  0  0  0  0  0  0  0  0
    4.3550   10.0420   55.6900 C   0  0  0  0  0  0  0  0  0  0  0  0
    1.9920    3.7320   50.3800 C   0  0  0  0  0  0  0  0  0  0  0  0
    2.5920    4.9500   50.7680 C   0  0  0  0  0  0  0  0  0  0  0  0
    4.0210    9.4110   53.5270 C   0  0  0  0  0  0  0  0  0  0  0  0
    3.8670    8.6840   55.6590 C   0  0  0  0  0  0  0  0  0  0  0  0
    1.9470    2.5470   51.1700 C   0  0  0  0  0  0  0  0  0  0  0  0
    2.6010    6.5790   52.6540 C   0  0  0  0  0  0  0  0  0  0  0  0
    1.2930   -0.6700   53.1010 C   0  0  0  0  0  0  0  0  0  0  0  0
    1.7830    0.3200   54.1240 C   0  0  0  0  0  0  0  0  0  0  0  0
    2.4670   -1.3260   52.3870 C   0  0  0  0  0  0  0  0  0  0  0  0
    3.0310    1.0970   53.7870 C   0  0  0  0  0  0  0  0  0  0  0  0
    3.1930   -0.2830   51.5440 C   0  0  0  0  0  0  0  0  0  0  0  0
    3.5220    0.9960   52.3340 C   0  0  0  0  0  0  0  0  0  0  0  0
    3.5130    6.9580   53.8110 C   0  0  0  0  0  0  0  0  0  0  0  0
    3.6380    8.3380   54.3190 N   0  0  0  0  0  0  0  0  0  0  0  0
    2.8310    5.3130   52.1180 N   0  0  0  0  0  0  0  0  0  0  0  0
    3.1670    2.1810   51.6250 N   0  0  0  0  0  0  0  0  0  0  0  0
    3.9880    9.3800   52.3180 O   0  0  0  0  0  0  0  0  0  0  0  0
    3.7370    7.9140   56.6000 O   0  0  0  0  0  0  0  0  0  0  0  0
    0.9550    1.8380   51.2850 O   0  0  0  0  0  0  0  0  0  0  0  0
    1.7330    7.2970   52.2000 O   0  0  0  0  0  0  0  0  0  0  0  0
  1  2  2  0
  1  5  1  0
  2  6  1  0
  3  4  2  0
  3  7  1  0
  4  8  1  0
  5  9  2  0
  6 10  2  0
  7 11  2  0
  8 12  2  0
  9 10  1  0
  9 13  1  0
 10 14  1  0
 11 12  1  0
 11 15  1  0
 12 25  1  0
 13 24  1  0
 13 27  2  0
 14 24  1  0
 14 28  2  0
 15 26  1  0
 15 29  2  0
 16 23  1  0
 16 25  1  0
 16 30  2  0
 17 18  1  0
 17 19  1  0
 18 20  1  0
 19 21  1  0
 20 22  1  0
 21 22  1  0
 22 26  1  0
 23 24  1  0
M  END
>  <washed_aromatic_smiles>  (595) 
c1ccc2c(c1)C(=O)N(C2=O)CC(=O)Nc3ccccc3C(=O)NC4CCCCC4

>  <name>  (595) 
neg262157

$$$$
neg270884
     RDKit          3D

 27 30  0  0  0  0  0  0  0  0999 V2000
    1.8600   -0.9150   55.0680 C   0  0  0  0  0  0  0  0  0  0  0  0
    3.0320   -0.2610   55.3840 C   0  0  0  0  0  0  0  0  0  0  0  0
    1.1760   -0.6810   53.8950 C   0  0  0  0  0  0  0  0  0  0  0  0
    3.4820    0.6990   54.5370 C   0  0  0  0  0  0  0  0  0  0  0  0
    1.0890    3.3990   47.7980 C   0  0  0  0  0  0  0  0  0  0  0  0
    1.6530    4.1840   48.7790 C   0  0  0  0  0  0  0  0  0  0  0  0
    1.5560    1.4220   49.0280 C   0  0  0  0  0  0  0  0  0  0  0  0
    1.6630    0.2700   53.0430 C   0  0  0  0  0  0  0  0  0  0  0  0
    2.8800    0.8400   53.3000 C   0  0  0  0  0  0  0  0  0  0  0  0
    1.1070    2.0060   47.8520 C   0  0  0  0  0  0  0  0  0  0  0  0
    2.2380    3.6000   49.9000 C   0  0  0  0  0  0  0  0  0  0  0  0
    2.0510    2.2090   50.0560 C   0  0  0  0  0  0  0  0  0  0  0  0
    1.1590    0.7890   51.8190 C   0  0  0  0  0  0  0  0  0  0  0  0
    3.3310    1.3920   52.0740 C   0  0  0  0  0  0  0  0  0  0  0  0
    0.7260    1.1680   46.7220 C   0  0  0  0  0  0  0  0  0  0  0  0
    2.8590    7.6840   51.9720 C   0  0  0  0  0  0  0  0  0  0  0  0
    3.0260    6.9040   53.2540 C   0  0  0  0  0  0  0  0  0  0  0  0
    2.8490    6.9060   50.6280 C   0  0  0  0  0  0  0  0  0  0  0  0
    3.6450    5.5530   52.9680 C   0  0  0  0  0  0  0  0  0  0  0  0
    3.6090    5.6410   50.2070 C   0  0  0  0  0  0  0  0  0  0  0  0
    2.7250    4.5850   52.1730 C   0  0  0  0  0  0  0  0  0  0  0  0
    2.2090    1.5240   51.2650 N   0  0  0  0  0  0  0  0  0  0  0  0
    3.0310    4.4180   50.7580 N   0  0  0  0  0  0  0  0  0  0  0  0
    0.0290    0.6870   51.3560 O   0  0  0  0  0  0  0  0  0  0  0  0
    4.4780    1.4520   51.7030 O   0  0  0  0  0  0  0  0  0  0  0  0
    1.0360   -0.0490   46.7380 O   0  0  0  0  0  0  0  0  0  0  0  0
    0.1940    1.6760   45.7120 O   0  0  0  0  0  0  0  0  0  0  0  0
  1  2  2  0
  1  3  1  0
  2  4  1  0
  3  8  2  0
  4  9  2  0
  5  6  2  0
  5 10  1  0
  6 11  1  0
  7 10  2  0
  7 12  1  0
  8  9  1  0
  8 13  1  0
  9 14  1  0
 10 15  1  0
 11 12  2  0
 11 23  1  0
 12 22  1  0
 13 22  1  0
 13 24  2  0
 14 22  1  0
 14 25  2  0
 15 26  1  0
 15 27  2  0
 16 17  1  0
 16 18  1  0
 17 19  1  0
 18 20  1  0
 19 21  1  0
 20 23  1  0
 21 23  1  0
M  CHG  1  26  -1
M  END
>  <washed_aromatic_smiles>  (596) 
c1ccc2c(c1)C(=O)N(C2=O)c3cc(ccc3N4CCCCCC4)C(=O)O

>  <name>  (596) 
neg270884

$$$$
neg227660
     RDKit          3D

 28 31  0  0  0  0  0  0  0  0999 V2000
    0.9310   -0.8420   53.7730 C   0  0  0  0  0  0  0  0  0  0  0  0
    2.0780   -0.5590   54.5120 C   0  0  0  0  0  0  0  0  0  0  0  0
    3.4040    4.3980   48.1620 C   0  0  0  0  0  0  0  0  0  0  0  0
    3.4420    5.6820   48.7070 C   0  0  0  0  0  0  0  0  0  0  0  0
    0.5750   -0.1190   52.6450 C   0  0  0  0  0  0  0  0  0  0  0  0
    2.9350    0.4210   54.0730 C   0  0  0  0  0  0  0  0  0  0  0  0
    3.1590    9.6620   53.0190 C   0  0  0  0  0  0  0  0  0  0  0  0
    5.0330    8.4390   53.8670 C   0  0  0  0  0  0  0  0  0  0  0  0
    2.9970    3.3280   48.9290 C   0  0  0  0  0  0  0  0  0  0  0  0
    3.1580    5.8840   50.0530 C   0  0  0  0  0  0  0  0  0  0  0  0
    3.9200   10.8180   53.0790 C   0  0  0  0  0  0  0  0  0  0  0  0
    5.7930    9.5950   53.9140 C   0  0  0  0  0  0  0  0  0  0  0  0
    1.4630    0.8070   52.1830 C   0  0  0  0  0  0  0  0  0  0  0  0
    2.6390    1.0150   52.8580 C   0  0  0  0  0  0  0  0  0  0  0  0
    3.7040    8.4370   53.4050 C   0  0  0  0  0  0  0  0  0  0  0  0
    2.8010    3.5110   50.2840 C   0  0  0  0  0  0  0  0  0  0  0  0
    2.8660    4.7870   50.8570 C   0  0  0  0  0  0  0  0  0  0  0  0
    5.2170   10.8020   53.5460 C   0  0  0  0  0  0  0  0  0  0  0  0
    1.4480    1.6010   50.9970 C   0  0  0  0  0  0  0  0  0  0  0  0
    3.4610    1.7670   52.0020 C   0  0  0  0  0  0  0  0  0  0  0  0
    2.9010    7.2280   53.2580 C   0  0  0  0  0  0  0  0  0  0  0  0
    3.5220    5.8700   52.9700 C   0  0  0  0  0  0  0  0  0  0  0  0
    2.6120    2.3450   51.0450 N   0  0  0  0  0  0  0  0  0  0  0  0
    0.6670    1.5850   50.0570 O   0  0  0  0  0  0  0  0  0  0  0  0
    4.6510    1.5720   51.9160 O   0  0  0  0  0  0  0  0  0  0  0  0
    1.6950    7.2750   53.3860 O   0  0  0  0  0  0  0  0  0  0  0  0
    2.6820    4.9500   52.2090 O   0  0  0  0  0  0  0  0  0  0  0  0
    6.0290   12.3170   53.6460 Cl  0  0  0  0  0  0  0  0  0  0  0  0
  1  2  2  0
  1  5  1  0
  2  6  1  0
  3  4  2  0
  3  9  1  0
  4 10  1  0
  5 13  2  0
  6 14  2  0
  7 11  2  0
  7 15  1  0
  8 12  1  0
  8 15  2  0
  9 16  2  0
 10 17  2  0
 11 18  1  0
 12 18  2  0
 13 14  1  0
 13 19  1  0
 14 20  1  0
 15 21  1  0
 16 17  1  0
 16 23  1  0
 17 27  1  0
 18 28  1  0
 19 23  1  0
 19 24  2  0
 20 23  1  0
 20 25  2  0
 21 22  1  0
 21 26  2  0
 22 27  1  0
M  END
>  <washed_aromatic_smiles>  (597) 
c1ccc2c(c1)C(=O)N(C2=O)c3ccccc3OCC(=O)c4ccc(cc4)Cl

>  <name>  (597) 
neg227660

$$$$
neg80375
     RDKit          3D

 28 30  0  0  0  0  0  0  0  0999 V2000
    5.2980   12.9860   56.5400 C   0  0  0  0  0  0  0  0  0  0  0  0
    5.4870   13.1260   55.1660 C   0  0  0  0  0  0  0  0  0  0  0  0
    4.7690   11.8070   57.0460 C   0  0  0  0  0  0  0  0  0  0  0  0
    5.2490   12.0660   54.3080 C   0  0  0  0  0  0  0  0  0  0  0  0
    0.5360    8.3690   54.7630 C   0  0  0  0  0  0  0  0  0  0  0  0
    1.0890    8.0120   53.5590 C   0  0  0  0  0  0  0  0  0  0  0  0
    4.3950   10.7840   56.1710 C   0  0  0  0  0  0  0  0  0  0  0  0
    4.7100   10.8790   54.8050 C   0  0  0  0  0  0  0  0  0  0  0  0
    2.6820    9.1290   55.5870 C   0  0  0  0  0  0  0  0  0  0  0  0
    3.1860    8.9920   54.2680 C   0  0  0  0  0  0  0  0  0  0  0  0
    1.3280    8.8310   55.8290 C   0  0  0  0  0  0  0  0  0  0  0  0
    2.4440    8.2290   53.3410 C   0  0  0  0  0  0  0  0  0  0  0  0
    3.5630    9.6780   56.5910 C   0  0  0  0  0  0  0  0  0  0  0  0
    4.3490    9.7900   53.9160 C   0  0  0  0  0  0  0  0  0  0  0  0
   -2.6310    7.5610   58.7770 C   0  0  0  0  0  0  0  0  0  0  0  0
    2.6300    4.2530   50.4040 C   0  0  0  0  0  0  0  0  0  0  0  0
   -1.2550    8.2320   58.7290 C   0  0  0  0  0  0  0  0  0  0  0  0
    2.4900    5.7550   50.6450 C   0  0  0  0  0  0  0  0  0  0  0  0
   -0.7220    8.5610   57.3300 C   0  0  0  0  0  0  0  0  0  0  0  0
    2.8840    6.2090   52.0500 C   0  0  0  0  0  0  0  0  0  0  0  0
    0.7050    8.9570   57.1330 N   0  0  0  0  0  0  0  0  0  0  0  0
    2.9770    7.6760   52.1860 N   0  0  0  0  0  0  0  0  0  0  0  0
    3.6230    9.2390   57.7300 O   0  0  0  0  0  0  0  0  0  0  0  0
    4.9760    9.6490   52.8800 O   0  0  0  0  0  0  0  0  0  0  0  0
   -3.2790    7.6900   59.8380 O   0  0  0  0  0  0  0  0  0  0  0  0
    2.5620    3.4860   51.3890 O   0  0  0  0  0  0  0  0  0  0  0  0
   -2.9910    6.8650   57.8040 O   0  0  0  0  0  0  0  0  0  0  0  0
    2.7900    3.8820   49.2210 O   0  0  0  0  0  0  0  0  0  0  0  0
  1  2  2  0
  1  3  1  0
  2  4  1  0
  3  7  2  0
  4  8  2  0
  5  6  1  0
  5 11  2  0
  6 12  2  0
  7  8  1  0
  7 13  1  0
  8 14  1  0
  9 10  2  0
  9 11  1  0
  9 13  1  0
 10 12  1  0
 10 14  1  0
 11 21  1  0
 12 22  1  0
 13 23  2  0
 14 24  2  0
 15 17  1  0
 15 25  1  0
 15 27  2  0
 16 18  1  0
 16 26  1  0
 16 28  2  0
 17 19  1  0
 18 20  1  0
 19 21  1  0
 20 22  1  0
M  CHG  2  25  -1  26  -1
M  END
>  <washed_aromatic_smiles>  (598) 
c1ccc2c(c1)C(=O)c3c(ccc(c3C2=O)NCCC(=O)O)NCCC(=O)O

>  <name>  (598) 
neg80375

$$$$
neg12096
     RDKit          3D

 29 33  0  0  0  0  0  0  0  0999 V2000
    2.2290   -1.7080   52.0190 C   0  0  0  0  0  0  0  0  0  0  0  0
    4.3930    8.9750   56.5660 C   0  0  0  0  0  0  0  0  0  0  0  0
    2.8210   -1.3130   53.2060 C   0  0  0  0  0  0  0  0  0  0  0  0
    5.2700    8.5710   55.5710 C   0  0  0  0  0  0  0  0  0  0  0  0
    1.7070   -0.8100   51.1260 C   0  0  0  0  0  0  0  0  0  0  0  0
    3.0340    8.9930   56.3010 C   0  0  0  0  0  0  0  0  0  0  0  0
    2.9680    0.0250   53.4750 C   0  0  0  0  0  0  0  0  0  0  0  0
    4.7920    8.1760   54.3240 C   0  0  0  0  0  0  0  0  0  0  0  0
    1.5770    4.9810   48.6280 C   0  0  0  0  0  0  0  0  0  0  0  0
    1.8150    0.5170   51.4120 C   0  0  0  0  0  0  0  0  0  0  0  0
    2.5700    8.6010   55.0480 C   0  0  0  0  0  0  0  0  0  0  0  0
    2.5420    0.9270   52.5240 C   0  0  0  0  0  0  0  0  0  0  0  0
    3.4240    8.1770   54.0390 C   0  0  0  0  0  0  0  0  0  0  0  0
    2.5230    5.2750   50.4640 C   0  0  0  0  0  0  0  0  0  0  0  0
    1.2730    5.7350   50.6550 C   0  0  0  0  0  0  0  0  0  0  0  0
    2.9970    4.4890   51.5440 C   0  0  0  0  0  0  0  0  0  0  0  0
    0.6860    6.4610   51.7620 C   0  0  0  0  0  0  0  0  0  0  0  0
    1.3130    1.4970   50.4290 C   0  0  0  0  0  0  0  0  0  0  0  0
    1.1320    8.6880   54.7050 C   0  0  0  0  0  0  0  0  0  0  0  0
    3.1070    2.2950   52.5870 C   0  0  0  0  0  0  0  0  0  0  0  0
    2.7890    7.8010   52.6660 C   0  0  0  0  0  0  0  0  0  0  0  0
    2.5190    2.3460   50.1830 C   0  0  0  0  0  0  0  0  0  0  0  0
    0.6270    7.5480   53.9010 C   0  0  0  0  0  0  0  0  0  0  0  0
    2.7700    5.0380   49.1420 N   0  0  0  0  0  0  0  0  0  0  0  0
    0.6440    5.3060   49.5550 N   0  0  0  0  0  0  0  0  0  0  0  0
    2.8480    3.1180   51.4190 N   0  0  0  0  0  0  0  0  0  0  0  0
    1.4070    7.1830   52.7350 N   0  0  0  0  0  0  0  0  0  0  0  0
    3.3810    4.9580   52.6140 O   0  0  0  0  0  0  0  0  0  0  0  0
   -0.5300    6.4590   51.8890 O   0  0  0  0  0  0  0  0  0  0  0  0
  1  3  2  0
  1  5  1  0
  2  4  2  0
  2  6  1  0
  3  7  1  0
  4  8  1  0
  5 10  2  0
  6 11  2  0
  7 12  2  0
  8 13  2  0
  9 24  2  0
  9 25  1  0
 10 12  1  0
 10 18  1  0
 11 13  1  0
 11 19  1  0
 12 20  1  0
 13 21  1  0
 14 15  2  0
 14 16  1  0
 14 24  1  0
 15 17  1  0
 15 25  1  0
 16 26  1  0
 16 28  2  0
 17 27  1  0
 17 29  2  0
 18 22  1  0
 19 23  1  0
 20 26  1  0
 21 27  1  0
 22 26  1  0
 23 27  1  0
M  END
>  <washed_aromatic_smiles>  (599) 
c1ccc2c(c1)CCN(C2)C(=O)c3c(nc[nH]3)C(=O)N4CCc5ccccc5C4

>  <name>  (599) 
neg12096

$$$$
neg271884
     RDKit          3D

 28 32  0  0  0  0  0  0  0  0999 V2000
   -0.1030    7.6960   52.5190 C   0  0  0  0  0  0  0  0  0  0  0  0
    5.0010   12.4250   53.8530 C   0  0  0  0  0  0  0  0  0  0  0  0
   -0.2830    8.5500   53.6190 C   0  0  0  0  0  0  0  0  0  0  0  0
    5.0040   11.0760   54.2000 C   0  0  0  0  0  0  0  0  0  0  0  0
    5.9780    6.8680   58.1200 C   0  0  0  0  0  0  0  0  0  0  0  0
    1.1220    7.1220   52.2730 C   0  0  0  0  0  0  0  0  0  0  0  0
    5.2480   13.3910   54.8250 C   0  0  0  0  0  0  0  0  0  0  0  0
    0.5880    8.5370   54.6460 C   0  0  0  0  0  0  0  0  0  0  0  0
    5.2120   10.6940   55.5210 C   0  0  0  0  0  0  0  0  0  0  0  0
    4.7910    6.8300   57.4040 C   0  0  0  0  0  0  0  0  0  0  0  0
    6.3680    8.0900   58.6360 C   0  0  0  0  0  0  0  0  0  0  0  0
    2.0990    7.3940   53.1890 C   0  0  0  0  0  0  0  0  0  0  0  0
    5.4620   13.0070   56.1410 C   0  0  0  0  0  0  0  0  0  0  0  0
    1.8190    8.0400   54.3690 C   0  0  0  0  0  0  0  0  0  0  0  0
    5.3780   11.6790   56.5010 C   0  0  0  0  0  0  0  0  0  0  0  0
    4.0270    8.0110   57.2920 C   0  0  0  0  0  0  0  0  0  0  0  0
    5.5150    9.1800   58.4600 C   0  0  0  0  0  0  0  0  0  0  0  0
    2.8880    8.3970   56.5140 C   0  0  0  0  0  0  0  0  0  0  0  0
    5.7250   10.5340   58.7850 C   0  0  0  0  0  0  0  0  0  0  0  0
    3.5300    7.1940   53.0990 C   0  0  0  0  0  0  0  0  0  0  0  0
    5.8930   13.8260   57.3210 C   0  0  0  0  0  0  0  0  0  0  0  0
    3.9040    7.3740   54.5430 C   0  0  0  0  0  0  0  0  0  0  0  0
    5.8490   12.8880   58.4730 C   0  0  0  0  0  0  0  0  0  0  0  0
    4.3710    9.0730   57.9140 N   0  0  0  0  0  0  0  0  0  0  0  0
    2.9080    8.1370   55.1800 N   0  0  0  0  0  0  0  0  0  0  0  0
    5.5420   11.5850   57.9180 N   0  0  0  0  0  0  0  0  0  0  0  0
    1.9720    9.0520   57.0120 O   0  0  0  0  0  0  0  0  0  0  0  0
    6.1600   10.8120   59.8420 O   0  0  0  0  0  0  0  0  0  0  0  0
  1  3  2  0
  1  6  1  0
  2  4  2  0
  2  7  1  0
  3  8  1  0
  4  9  1  0
  5 10  2  0
  5 11  1  0
  6 12  2  0
  7 13  2  0
  8 14  2  0
  9 15  2  0
 10 16  1  0
 11 17  2  0
 12 14  1  0
 12 20  1  0
 13 15  1  0
 13 21  1  0
 14 25  1  0
 15 26  1  0
 16 18  1  0
 16 24  2  0
 17 19  1  0
 17 24  1  0
 18 25  1  0
 18 27  2  0
 19 26  1  0
 19 28  2  0
 20 22  1  0
 21 23  1  0
 22 25  1  0
 23 26  1  0
M  END
>  <washed_aromatic_smiles>  (600) 
c1ccc2c(c1)CCN2C(=O)c3cccc(n3)C(=O)N4CCc5c4cccc5

>  <name>  (600) 
neg271884

$$$$
neg300401
     RDKit          3D

 25 27  0  0  0  0  0  0  0  0999 V2000
    2.4110    6.2540   51.9670 C   0  0  0  0  0  0  0  0  0  0  0  0
    0.8420    0.7480   49.6240 C   0  0  0  0  0  0  0  0  0  0  0  0
    0.9480    1.8470   48.5500 C   0  0  0  0  0  0  0  0  0  0  0  0
    0.6660    1.1220   51.1040 C   0  0  0  0  0  0  0  0  0  0  0  0
    2.0780    2.8820   48.6310 C   0  0  0  0  0  0  0  0  0  0  0  0
    1.9510    1.3540   51.8930 C   0  0  0  0  0  0  0  0  0  0  0  0
    5.5020   12.5610   57.3530 C   0  0  0  0  0  0  0  0  0  0  0  0
    4.9440   11.2290   57.8490 C   0  0  0  0  0  0  0  0  0  0  0  0
    1.8530    4.0540   49.5990 C   0  0  0  0  0  0  0  0  0  0  0  0
    2.8650    2.5680   51.6120 C   0  0  0  0  0  0  0  0  0  0  0  0
    3.0460    7.1380   54.3670 C   0  0  0  0  0  0  0  0  0  0  0  0
    1.6400    8.5380   52.9910 C   0  0  0  0  0  0  0  0  0  0  0  0
    5.6050   12.4350   55.8340 C   0  0  0  0  0  0  0  0  0  0  0  0
    4.8640   10.3410   56.6110 C   0  0  0  0  0  0  0  0  0  0  0  0
    4.2250    8.0960   54.2150 C   0  0  0  0  0  0  0  0  0  0  0  0
    2.8720    9.4160   52.7240 C   0  0  0  0  0  0  0  0  0  0  0  0
    2.0040    7.0740   53.2260 C   0  0  0  0  0  0  0  0  0  0  0  0
    2.5590    3.9600   50.9570 C   0  0  0  0  0  0  0  0  0  0  0  0
    4.8800   11.2300   55.4560 N   0  0  0  0  0  0  0  0  0  0  0  0
    3.8400    9.4440   53.8210 N   0  0  0  0  0  0  0  0  0  0  0  0
    2.0500    4.9550   51.9150 N   0  0  0  0  0  0  0  0  0  0  0  0
    3.0110    6.7820   51.0390 O   0  0  0  0  0  0  0  0  0  0  0  0
    4.6410   11.7210   53.0160 O   0  0  0  0  0  0  0  0  0  0  0  0
    6.2830   10.0860   53.7070 O   0  0  0  0  0  0  0  0  0  0  0  0
    4.9870   10.6550   53.9000 S   0  0  0  0  0  0  0  0  0  0  0  0
  1 17  1  0
  1 21  1  0
  1 22  2  0
  2  3  1  0
  2  4  1  0
  3  5  1  0
  4  6  1  0
  5  9  1  0
  6 10  1  0
  7  8  1  0
  7 13  1  0
  8 14  1  0
  9 18  1  0
 10 18  1  0
 11 15  1  0
 11 17  1  0
 12 16  1  0
 12 17  1  0
 13 19  1  0
 14 19  1  0
 15 20  1  0
 16 20  1  0
 18 21  1  0
 19 25  1  0
 20 25  1  0
 23 25  2  0
 24 25  2  0
M  END
>  <washed_aromatic_smiles>  (601) 
C1CCCC(CCC1)NC(=O)C2CCN(CC2)S(=O)(=O)N3CCCC3

>  <name>  (601) 
neg300401

$$$$
neg280030
     RDKit          3D

 25 27  0  0  0  0  0  0  0  0999 V2000
    0.4930    8.2840   54.6680 C   0  0  0  0  0  0  0  0  0  0  0  0
    0.3690   -0.5200   47.9340 C   0  0  0  0  0  0  0  0  0  0  0  0
    0.1690    8.3560   53.1830 C   0  0  0  0  0  0  0  0  0  0  0  0
    1.9840    8.5730   54.8730 C   0  0  0  0  0  0  0  0  0  0  0  0
   -0.5470    0.4740   48.2580 C   0  0  0  0  0  0  0  0  0  0  0  0
    1.3840   -0.4810   48.8590 C   0  0  0  0  0  0  0  0  0  0  0  0
    3.6520    2.0130   52.0430 C   0  0  0  0  0  0  0  0  0  0  0  0
    1.3160    7.9040   52.3200 C   0  0  0  0  0  0  0  0  0  0  0  0
    2.8250    7.5230   54.1350 C   0  0  0  0  0  0  0  0  0  0  0  0
   -1.0110    0.2730   49.7200 C   0  0  0  0  0  0  0  0  0  0  0  0
    1.0940   -0.9020   50.2100 C   0  0  0  0  0  0  0  0  0  0  0  0
    3.0810    3.4330   52.2060 C   0  0  0  0  0  0  0  0  0  0  0  0
    2.6000    1.1200   52.4240 C   0  0  0  0  0  0  0  0  0  0  0  0
    1.3280    4.0820   50.8570 C   0  0  0  0  0  0  0  0  0  0  0  0
    1.4410    2.5390   50.4670 C   0  0  0  0  0  0  0  0  0  0  0  0
    2.1430    6.9370   52.9550 N   0  0  0  0  0  0  0  0  0  0  0  0
   -0.0330   -0.1870   50.6740 N   0  0  0  0  0  0  0  0  0  0  0  0
    2.2280    4.4910   51.9040 N   0  0  0  0  0  0  0  0  0  0  0  0
    1.4720    1.4760   51.6180 N   0  0  0  0  0  0  0  0  0  0  0  0
    3.1110    6.5000   50.6630 O   0  0  0  0  0  0  0  0  0  0  0  0
    4.2510    5.7440   52.6690 O   0  0  0  0  0  0  0  0  0  0  0  0
   -0.8540    1.5300   52.1630 O   0  0  0  0  0  0  0  0  0  0  0  0
    0.5340   -0.2630   53.0620 O   0  0  0  0  0  0  0  0  0  0  0  0
    3.0230    5.9560   51.9810 S   0  0  0  0  0  0  0  0  0  0  0  0
    0.1960    0.6330   52.0030 S   0  0  0  0  0  0  0  0  0  0  0  0
  1  3  1  0
  1  4  1  0
  2  5  1  0
  2  6  1  0
  3  8  1  0
  4  9  1  0
  5 10  1  0
  6 11  1  0
  7 12  1  0
  7 13  1  0
  8 16  1  0
  9 16  1  0
 10 17  1  0
 11 17  1  0
 12 18  1  0
 13 19  1  0
 14 15  1  0
 14 18  1  0
 15 19  1  0
 16 24  1  0
 17 25  1  0
 18 24  1  0
 19 25  1  0
 20 24  2  0
 21 24  2  0
 22 25  2  0
 23 25  2  0
M  END
>  <washed_aromatic_smiles>  (602) 
C1CCN(CC1)S(=O)(=O)N2CCCN(CC2)S(=O)(=O)N3CCCCC3

>  <name>  (602) 
neg280030

$$$$
neg172320
     RDKit          3D

 28 31  0  0  1  0  0  0  0  0999 V2000
    5.6370   13.8220   57.3380 C   0  0  0  0  0  0  0  0  0  0  0  0
    1.8930    6.1160   50.9790 C   0  0  0  0  0  0  0  0  0  0  0  0
    5.5620   12.7870   58.2460 C   0  0  0  0  0  0  0  0  0  0  0  0
    5.1680   13.6430   56.0380 C   0  0  0  0  0  0  0  0  0  0  0  0
    1.0720    6.0030   52.0800 C   0  0  0  0  0  0  0  0  0  0  0  0
    2.8760    7.0900   50.9760 C   0  0  0  0  0  0  0  0  0  0  0  0
    4.9760   11.5950   57.8680 C   0  0  0  0  0  0  0  0  0  0  0  0
    4.6460   12.4300   55.6380 C   0  0  0  0  0  0  0  0  0  0  0  0
    1.3130    6.7800   53.2040 C   0  0  0  0  0  0  0  0  0  0  0  0
    3.0670    7.9190   52.0830 C   0  0  0  0  0  0  0  0  0  0  0  0
    4.5300   11.3860   56.5500 C   0  0  0  0  0  0  0  0  0  0  0  0
    2.3660    7.7110   53.2590 C   0  0  0  0  0  0  0  0  0  0  0  0
    3.5830    9.6620   54.7280 C   0  0  0  0  0  0  0  0  0  0  0  0
   -1.4760    7.3350   57.9670 C   0  0  0  0  0  0  0  0  0  0  0  0
    5.2630    4.6520   58.7630 C   0  0  0  0  0  0  0  0  0  0  0  0
   -0.6200    8.3070   58.2960 C   0  0  0  0  0  0  0  0  0  0  0  0
    4.8510    5.2940   57.6610 C   0  0  0  0  0  0  0  0  0  0  0  0
    2.5280   10.1070   56.9820 C   0  0  0  0  0  0  0  0  0  0  0  0
    4.7310    8.9540   56.7760 C   0  0  0  0  0  0  0  0  0  0  0  0
    1.4720    8.6630   55.3160 C   0  0  0  0  0  0  0  0  0  0  0  0
    3.7570    7.3670   55.3030 C   0  0  0  0  0  0  0  0  0  0  0  0
    3.8510   10.0640   56.2020 C   0  0  2  0  0  0  0  0  0  0  0  0
    2.7890    8.3600   54.6080 C   0  0  1  0  0  0  0  0  0  0  0  0
    0.0740    9.1880   57.2850 C   0  0  0  0  0  0  0  0  0  0  0  0
    5.0750    6.7760   57.4840 C   0  0  0  0  0  0  0  0  0  0  0  0
    1.5210    9.0050   56.7660 N   0  0  2  0  0  0  0  0  0  0  0  0
    4.1030    7.6510   56.7500 N   0  0  0  0  0  0  0  0  0  0  0  0
    4.1650   10.1590   53.8070 O   0  0  0  0  0  0  0  0  0  0  0  0
  1  3  2  0
  1  4  1  0
  2  5  2  0
  2  6  1  0
  3  7  1  0
  4  8  2  0
  5  9  1  0
  6 10  2  0
  7 11  2  0
  8 11  1  0
  9 12  2  0
 10 12  1  0
 11 22  1  0
 12 23  1  0
 13 22  1  0
 13 23  1  0
 13 28  2  0
 14 16  2  0
 15 17  2  0
 16 24  1  0
 17 25  1  0
 22 18  1  1
 18 26  1  0
 19 22  1  0
 19 27  1  0
 23 20  1  1
 20 26  1  0
 21 23  1  0
 21 27  1  0
 26 24  1  6
 25 27  1  0
M  CHG  1  26   1
M  END
>  <washed_aromatic_smiles>  (603) 
C=CCN1CC2(CN(CC(C1)(C2=O)c3ccccc3)CC=C)c4ccccc4

>  <name>  (603) 
neg172320

$$$$
neg188397
     RDKit          3D

 25 26  0  0  0  0  0  0  0  0999 V2000
    2.9720    2.2160   52.1400 C   0  0  0  0  0  0  0  0  0  0  0  0
    4.1080    1.4490   52.1010 C   0  0  0  0  0  0  0  0  0  0  0  0
    2.9730   -0.2260   50.7770 C   0  0  0  0  0  0  0  0  0  0  0  0
    1.9420    1.8510   51.2950 C   0  0  0  0  0  0  0  0  0  0  0  0
    4.1430    0.3500   51.2660 C   0  0  0  0  0  0  0  0  0  0  0  0
    1.8380    0.5690   50.7480 C   0  0  0  0  0  0  0  0  0  0  0  0
    3.4700    8.8340   53.4050 C   0  0  0  0  0  0  0  0  0  0  0  0
    2.5570    7.7220   53.0720 C   0  0  0  0  0  0  0  0  0  0  0  0
    2.3290    5.6520   50.1380 C   0  0  0  0  0  0  0  0  0  0  0  0
    1.6050    3.3830   49.5080 C   0  0  0  0  0  0  0  0  0  0  0  0
    3.9230    9.2580   57.0930 C   0  0  0  0  0  0  0  0  0  0  0  0
    4.4570   10.5860   56.5500 C   0  0  0  0  0  0  0  0  0  0  0  0
    3.1590    8.6630   55.9110 C   0  0  0  0  0  0  0  0  0  0  0  0
    4.6620   10.2670   55.0710 C   0  0  0  0  0  0  0  0  0  0  0  0
    3.6640    5.8720   49.4610 C   0  0  0  0  0  0  0  0  0  0  0  0
    1.3590    4.8390   49.3180 C   0  0  0  0  0  0  0  0  0  0  0  0
    1.9750    6.1540   51.2530 N   0  0  0  0  0  0  0  0  0  0  0  0
    3.6850    9.2540   54.7040 N   0  0  0  0  0  0  0  0  0  0  0  0
    1.2730    2.9230   50.7470 N   0  0  0  0  0  0  0  0  0  0  0  0
    2.8400    7.0300   51.9020 N   0  0  0  0  0  0  0  0  0  0  0  0
    4.0980    9.4300   52.5360 O   0  0  0  0  0  0  0  0  0  0  0  0
    1.5870    7.3870   53.7510 O   0  0  0  0  0  0  0  0  0  0  0  0
    2.1780    2.6870   48.6880 O   0  0  0  0  0  0  0  0  0  0  0  0
    5.6760   -0.0150   50.6380 Cl  0  0  0  0  0  0  0  0  0  0  0  0
    0.4140    0.0590   49.9090 Cl  0  0  0  0  0  0  0  0  0  0  0  0
  1  2  2  0
  1  4  1  0
  2  5  1  0
  3  5  2  0
  3  6  1  0
  4  6  2  0
  4 19  1  0
  5 24  1  0
  6 25  1  0
  7  8  1  0
  7 18  1  0
  7 21  2  0
  8 20  1  0
  8 22  2  0
  9 15  1  0
  9 16  1  0
  9 17  2  0
 10 16  1  0
 10 19  1  0
 10 23  2  0
 11 12  1  0
 11 13  1  0
 12 14  1  0
 13 18  1  0
 14 18  1  0
 17 20  1  0
M  END
>  <washed_aromatic_smiles>  (604) 
C/C(=N\NC(=O)C(=O)N1CCCC1)/CC(=O)Nc2ccc(cc2Cl)Cl

>  <name>  (604) 
neg188397

$$$$
neg128283
     RDKit          3D

 25 26  0  0  0  0  0  0  0  0999 V2000
    2.0010   -0.6970   50.8420 C   0  0  0  0  0  0  0  0  0  0  0  0
    0.8900    0.1570   50.8810 C   0  0  0  0  0  0  0  0  0  0  0  0
    3.2800   -0.1790   51.0760 C   0  0  0  0  0  0  0  0  0  0  0  0
    4.8750   10.7980   56.4690 C   0  0  0  0  0  0  0  0  0  0  0  0
    5.1900    8.5980   55.5360 C   0  0  0  0  0  0  0  0  0  0  0  0
    1.0680    1.5290   51.0920 C   0  0  0  0  0  0  0  0  0  0  0  0
    3.4480    1.1950   51.2800 C   0  0  0  0  0  0  0  0  0  0  0  0
    5.0770   10.2890   57.7460 C   0  0  0  0  0  0  0  0  0  0  0  0
    5.3780    8.0830   56.8100 C   0  0  0  0  0  0  0  0  0  0  0  0
    4.9260    9.9610   55.3400 C   0  0  0  0  0  0  0  0  0  0  0  0
    2.3550    2.0810   51.2070 C   0  0  0  0  0  0  0  0  0  0  0  0
    5.3400    8.9290   57.9150 C   0  0  0  0  0  0  0  0  0  0  0  0
    4.6850   10.4930   54.0070 C   0  0  0  0  0  0  0  0  0  0  0  0
    1.8760    5.9170   51.9490 C   0  0  0  0  0  0  0  0  0  0  0  0
    1.6580    8.8430   53.1250 C   0  0  0  0  0  0  0  0  0  0  0  0
    5.5400   11.6380   53.5070 C   0  0  0  0  0  0  0  0  0  0  0  0
    2.6280    3.5770   51.3400 C   0  0  0  0  0  0  0  0  0  0  0  0
    1.5720    4.6740   51.1030 C   0  0  0  0  0  0  0  0  0  0  0  0
    0.9520    7.5720   53.5060 C   0  0  0  0  0  0  0  0  0  0  0  0
    3.7480   10.0830   53.2390 N   0  0  0  0  0  0  0  0  0  0  0  0
    0.8230    6.5910   52.4260 N   0  0  0  0  0  0  0  0  0  0  0  0
    2.9330    9.0310   53.6140 N   0  0  0  0  0  0  0  0  0  0  0  0
    3.0300    6.1800   52.2850 O   0  0  0  0  0  0  0  0  0  0  0  0
    1.0990    9.7000   52.4780 O   0  0  0  0  0  0  0  0  0  0  0  0
    5.6410    8.2720   59.4870 Cl  0  0  0  0  0  0  0  0  0  0  0  0
  1  2  2  0
  1  3  1  0
  2  6  1  0
  3  7  2  0
  4  8  2  0
  4 10  1  0
  5  9  1  0
  5 10  2  0
  6 11  2  0
  7 11  1  0
  8 12  1  0
  9 12  2  0
 10 13  1  0
 11 17  1  0
 12 25  1  0
 13 16  1  0
 13 20  2  0
 14 18  1  0
 14 21  1  0
 14 23  2  0
 15 19  1  0
 15 22  1  0
 15 24  2  0
 17 18  1  0
 19 21  1  0
 20 22  1  0
M  END
>  <washed_aromatic_smiles>  (605) 
C/C(=N/NC(=O)CNC(=O)CCc1ccccc1)/c2ccc(cc2)Cl

>  <name>  (605) 
neg128283

$$$$
neg66086
     RDKit          3D

 28 29  0  0  0  0  0  0  0  0999 V2000
    5.2140    8.4980   56.2970 C   0  0  0  0  0  0  0  0  0  0  0  0
    3.3380   10.0040   56.5680 C   0  0  0  0  0  0  0  0  0  0  0  0
    5.7840    8.9910   57.4650 C   0  0  0  0  0  0  0  0  0  0  0  0
    3.9280   10.5250   57.7040 C   0  0  0  0  0  0  0  0  0  0  0  0
    0.3040    0.1740   48.6140 C   0  0  0  0  0  0  0  0  0  0  0  0
    0.7540    2.4020   47.7430 C   0  0  0  0  0  0  0  0  0  0  0  0
    0.7310    0.5830   49.8700 C   0  0  0  0  0  0  0  0  0  0  0  0
    1.1930    2.8050   48.9770 C   0  0  0  0  0  0  0  0  0  0  0  0
    4.0040    9.0160   55.8390 C   0  0  0  0  0  0  0  0  0  0  0  0
    5.1540   10.0370   58.1370 C   0  0  0  0  0  0  0  0  0  0  0  0
    0.3360    1.0930   47.5670 C   0  0  0  0  0  0  0  0  0  0  0  0
    1.1830    1.8920   50.0290 C   0  0  0  0  0  0  0  0  0  0  0  0
    1.7120    7.2700   52.0970 C   0  0  0  0  0  0  0  0  0  0  0  0
    2.2080    8.6040   54.1720 C   0  0  0  0  0  0  0  0  0  0  0  0
    2.8180    4.4590   51.6840 C   0  0  0  0  0  0  0  0  0  0  0  0
    0.4400    6.5840   52.5550 C   0  0  0  0  0  0  0  0  0  0  0  0
    5.7800   12.0810   59.3100 C   0  0  0  0  0  0  0  0  0  0  0  0
    0.9070    0.7330   45.2900 C   0  0  0  0  0  0  0  0  0  0  0  0
    1.9620    8.6350   52.6890 C   0  0  0  0  0  0  0  0  0  0  0  0
    2.8580    3.0060   51.2540 C   0  0  0  0  0  0  0  0  0  0  0  0
    2.5390    6.7820   51.2700 N   0  0  0  0  0  0  0  0  0  0  0  0
    3.5190    8.5870   54.5760 N   0  0  0  0  0  0  0  0  0  0  0  0
    2.4120    5.4680   50.8410 N   0  0  0  0  0  0  0  0  0  0  0  0
    1.2980    8.6080   54.9780 O   0  0  0  0  0  0  0  0  0  0  0  0
    3.2940    4.7860   52.7460 O   0  0  0  0  0  0  0  0  0  0  0  0
    5.7670   10.6260   59.2140 O   0  0  0  0  0  0  0  0  0  0  0  0
   -0.0540    0.7380   46.3370 O   0  0  0  0  0  0  0  0  0  0  0  0
    1.6190    2.2970   51.2390 O   0  0  0  0  0  0  0  0  0  0  0  0
  1  3  2  0
  1  9  1  0
  2  4  1  0
  2  9  2  0
  3 10  1  0
  4 10  2  0
  5  7  2  0
  5 11  1  0
  6  8  1  0
  6 11  2  0
  7 12  1  0
  8 12  2  0
  9 22  1  0
 10 26  1  0
 11 27  1  0
 12 28  1  0
 13 16  1  0
 13 19  1  0
 13 21  2  0
 14 19  1  0
 14 22  1  0
 14 24  2  0
 15 20  1  0
 15 23  1  0
 15 25  2  0
 17 26  1  0
 18 27  1  0
 20 28  1  0
 21 23  1  0
M  END
>  <washed_aromatic_smiles>  (606) 
C/C(=N\NC(=O)COc1ccc(cc1)OC)/CC(=O)Nc2ccc(cc2)OC

>  <name>  (606) 
neg66086

$$$$
neg47662
     RDKit          3D

 26 28  0  0  0  0  0  0  0  0999 V2000
    2.0180    8.9260   55.6590 C   0  0  0  0  0  0  0  0  0  0  0  0
    0.8380    8.5560   55.0120 C   0  0  0  0  0  0  0  0  0  0  0  0
    3.2450    8.6400   55.0770 C   0  0  0  0  0  0  0  0  0  0  0  0
    0.8810    7.9220   53.7840 C   0  0  0  0  0  0  0  0  0  0  0  0
    3.2890    7.9690   53.8640 C   0  0  0  0  0  0  0  0  0  0  0  0
    3.0100    7.1480   50.9620 C   0  0  0  0  0  0  0  0  0  0  0  0
    1.3870    5.6510   51.8670 C   0  0  0  0  0  0  0  0  0  0  0  0
    3.2270    6.2970   49.8930 C   0  0  0  0  0  0  0  0  0  0  0  0
    1.5950    4.7890   50.8080 C   0  0  0  0  0  0  0  0  0  0  0  0
    1.7000    1.1490   49.7320 C   0  0  0  0  0  0  0  0  0  0  0  0
   -0.3820    0.3440   48.8480 C   0  0  0  0  0  0  0  0  0  0  0  0
   -0.0740    0.5140   51.2460 C   0  0  0  0  0  0  0  0  0  0  0  0
    2.1070    7.5910   53.2130 C   0  0  0  0  0  0  0  0  0  0  0  0
    2.1550    6.8020   51.9990 C   0  0  0  0  0  0  0  0  0  0  0  0
    2.5030    5.1140   49.7930 C   0  0  0  0  0  0  0  0  0  0  0  0
    0.8280    0.9760   48.6380 C   0  0  0  0  0  0  0  0  0  0  0  0
    1.2420    0.9010   51.0210 C   0  0  0  0  0  0  0  0  0  0  0  0
   -0.8750    0.2770   50.1340 C   0  0  0  0  0  0  0  0  0  0  0  0
    1.0420    1.5680   47.3370 C   0  0  0  0  0  0  0  0  0  0  0  0
    2.6240    4.2960   48.6060 C   0  0  0  0  0  0  0  0  0  0  0  0
    0.8620    0.7390   46.0890 C   0  0  0  0  0  0  0  0  0  0  0  0
    1.4200    2.7740   47.1870 N   0  0  0  0  0  0  0  0  0  0  0  0
    1.4950    3.5890   48.2720 N   0  0  0  0  0  0  0  0  0  0  0  0
    3.6410    4.1840   47.9280 O   0  0  0  0  0  0  0  0  0  0  0  0
    2.0820    1.0790   52.0820 O   0  0  0  0  0  0  0  0  0  0  0  0
   -2.2010    0.0100   50.2300 O   0  0  0  0  0  0  0  0  0  0  0  0
  1  2  2  0
  1  3  1  0
  2  4  1  0
  3  5  2  0
  4 13  2  0
  5 13  1  0
  6  8  2  0
  6 14  1  0
  7  9  1  0
  7 14  2  0
  8 15  1  0
  9 15  2  0
 10 16  2  0
 10 17  1  0
 11 16  1  0
 11 18  2  0
 12 17  2  0
 12 18  1  0
 13 14  1  0
 15 20  1  0
 16 19  1  0
 17 25  1  0
 18 26  1  0
 19 21  1  0
 19 22  2  0
 20 23  1  0
 20 24  2  0
 22 23  1  0
M  END
>  <washed_aromatic_smiles>  (607) 
C/C(=N/NC(=O)c1ccc(cc1)c2ccccc2)/c3cc(cc(c3)O)O

>  <name>  (607) 
neg47662

$$$$
neg293874
     RDKit          3D

 25 25  0  0  0  0  0  0  0  0999 V2000
    0.0570    6.8190   52.1580 C   0  0  0  0  0  0  0  0  0  0  0  0
    0.5060    7.8430   52.9740 C   0  0  0  0  0  0  0  0  0  0  0  0
    0.9660    5.9330   51.5910 C   0  0  0  0  0  0  0  0  0  0  0  0
    2.7130    6.9900   52.6220 C   0  0  0  0  0  0  0  0  0  0  0  0
    1.8710    7.9400   53.2110 C   0  0  0  0  0  0  0  0  0  0  0  0
    2.4090    8.9600   54.0980 C   0  0  0  0  0  0  0  0  0  0  0  0
    4.8590   10.9320   56.8770 C   0  0  0  0  0  0  0  0  0  0  0  0
    4.5960   12.4510   54.9600 C   0  0  0  0  0  0  0  0  0  0  0  0
    4.2880    9.7990   57.6980 C   0  0  0  0  0  0  0  0  0  0  0  0
    5.0940   13.6370   55.7130 C   0  0  0  0  0  0  0  0  0  0  0  0
    4.6940   11.1320   55.4720 C   0  0  0  0  0  0  0  0  0  0  0  0
    4.7460    9.9770   54.3970 C   0  0  0  0  0  0  0  0  0  0  0  0
    5.2080    8.5850   54.9870 C   0  0  0  0  0  0  0  0  0  0  0  0
    5.8670   10.3770   53.2770 C   0  0  0  0  0  0  0  0  0  0  0  0
    2.2680    6.0200   51.8330 N   0  0  0  0  0  0  0  0  0  0  0  0
    3.4540    9.7330   53.6430 N   0  0  0  0  0  0  0  0  0  0  0  0
    2.0050    9.1030   55.2430 O   0  0  0  0  0  0  0  0  0  0  0  0
    5.4450   11.7360   57.6220 O   0  0  0  0  0  0  0  0  0  0  0  0
    4.1880   12.7520   53.8150 O   0  0  0  0  0  0  0  0  0  0  0  0
    5.5630    7.7840   54.0170 F   0  0  0  0  0  0  0  0  0  0  0  0
    6.2480    8.6500   55.7790 F   0  0  0  0  0  0  0  0  0  0  0  0
    4.3140    7.8660   55.6730 F   0  0  0  0  0  0  0  0  0  0  0  0
    6.9660    9.6980   53.3770 F   0  0  0  0  0  0  0  0  0  0  0  0
    5.4390   10.1650   52.0400 F   0  0  0  0  0  0  0  0  0  0  0  0
    6.3460   11.6150   53.2260 F   0  0  0  0  0  0  0  0  0  0  0  0
  1  2  2  0
  1  3  1  0
  2  5  1  0
  3 15  2  0
  4  5  2  0
  4 15  1  0
  5  6  1  0
  6 16  1  0
  6 17  2  0
  7  9  1  0
  7 11  2  0
  7 18  1  0
  8 10  1  0
  8 11  1  0
  8 19  2  0
 11 12  1  0
 12 13  1  0
 12 14  1  0
 12 16  1  0
 13 20  1  0
 13 21  1  0
 13 22  1  0
 14 23  1  0
 14 24  1  0
 14 25  1  0
M  CHG  1  18  -1
M  END
>  <washed_aromatic_smiles>  (608) 
CC(=O)C(C(=O)C)C(C(F)(F)F)(C(F)(F)F)NC(=O)c1cccnc1

>  <name>  (608) 
neg293874

$$$$
neg261550
     RDKit          3D

 29 30  0  0  0  0  0  0  0  0999 V2000
    2.7070    6.6340   51.0020 C   0  0  0  0  0  0  0  0  0  0  0  0
    0.9000    5.2400   51.7490 C   0  0  0  0  0  0  0  0  0  0  0  0
    3.3360    7.5710   54.1640 C   0  0  0  0  0  0  0  0  0  0  0  0
    2.1360    9.2440   52.8810 C   0  0  0  0  0  0  0  0  0  0  0  0
    2.9850    5.7300   49.9780 C   0  0  0  0  0  0  0  0  0  0  0  0
    1.2920    4.2830   50.8450 C   0  0  0  0  0  0  0  0  0  0  0  0
    4.3640    8.4800   54.3850 C   0  0  0  0  0  0  0  0  0  0  0  0
    3.1860   10.1070   53.0710 C   0  0  0  0  0  0  0  0  0  0  0  0
    1.6600    6.3660   51.8910 C   0  0  0  0  0  0  0  0  0  0  0  0
    2.2500    7.9720   53.3910 C   0  0  0  0  0  0  0  0  0  0  0  0
    2.2430    4.5530   49.8780 C   0  0  0  0  0  0  0  0  0  0  0  0
    4.2800    9.7560   53.8260 C   0  0  0  0  0  0  0  0  0  0  0  0
    2.1290    0.0210   51.0550 C   0  0  0  0  0  0  0  0  0  0  0  0
    5.8160   12.8300   57.8670 C   0  0  0  0  0  0  0  0  0  0  0  0
    2.1970   -0.1780   52.5520 C   0  0  0  0  0  0  0  0  0  0  0  0
    6.4320   14.0520   58.5050 C   0  0  0  0  0  0  0  0  0  0  0  0
    2.7190    1.2730   50.4430 C   0  0  0  0  0  0  0  0  0  0  0  0
    5.7860   12.7030   56.3510 C   0  0  0  0  0  0  0  0  0  0  0  0
    1.9410    1.8040   49.2150 C   0  0  0  0  0  0  0  0  0  0  0  0
    5.3090   11.3370   55.8290 C   0  0  0  0  0  0  0  0  0  0  0  0
    1.6660   -0.8320   50.3530 O   0  0  0  0  0  0  0  0  0  0  0  0
    5.4060   11.9470   58.5690 O   0  0  0  0  0  0  0  0  0  0  0  0
    1.3360    3.7390   47.5850 O   0  0  0  0  0  0  0  0  0  0  0  0
    3.6890    3.4150   48.0230 O   0  0  0  0  0  0  0  0  0  0  0  0
    6.7570   10.4100   53.7910 O   0  0  0  0  0  0  0  0  0  0  0  0
    5.1750   12.1850   53.3570 O   0  0  0  0  0  0  0  0  0  0  0  0
    1.3250    7.1060   52.9880 O   0  0  0  0  0  0  0  0  0  0  0  0
    2.3570    3.4130   48.5140 S   0  0  0  0  0  0  0  0  0  0  0  0
    5.5030   10.9990   54.0790 S   0  0  0  0  0  0  0  0  0  0  0  0
  1  5  2  0
  1  9  1  0
  2  6  1  0
  2  9  2  0
  3  7  2  0
  3 10  1  0
  4  8  1  0
  4 10  2  0
  5 11  1  0
  6 11  2  0
  7 12  1  0
  8 12  2  0
  9 27  1  0
 10 27  1  0
 11 28  1  0
 12 29  1  0
 13 15  1  0
 13 17  1  0
 13 21  2  0
 14 16  1  0
 14 18  1  0
 14 22  2  0
 17 19  1  0
 18 20  1  0
 19 28  1  0
 20 29  1  0
 23 28  2  0
 24 28  2  0
 25 29  2  0
 26 29  2  0
M  END
>  <washed_aromatic_smiles>  (609) 
CC(=O)CCS(=O)(=O)c1ccc(cc1)Oc2ccc(cc2)S(=O)(=O)CCC(=O)C

>  <name>  (609) 
neg261550

$$$$
neg52079
     RDKit          3D

 28 30  0  0  0  0  0  0  0  0999 V2000
    3.3960    5.7320   48.9150 C   0  0  0  0  0  0  0  0  0  0  0  0
    3.4180    6.9470   49.5660 C   0  0  0  0  0  0  0  0  0  0  0  0
    2.9000    4.6490   50.9870 C   0  0  0  0  0  0  0  0  0  0  0  0
    3.0660    4.5610   49.6020 C   0  0  0  0  0  0  0  0  0  0  0  0
    3.0610    7.0300   50.9000 C   0  0  0  0  0  0  0  0  0  0  0  0
    2.6520    5.8740   51.5450 C   0  0  0  0  0  0  0  0  0  0  0  0
    2.7680    3.3860   48.7890 C   0  0  0  0  0  0  0  0  0  0  0  0
    1.8210    9.1120   56.8300 C   0  0  0  0  0  0  0  0  0  0  0  0
    1.3690   -0.5840   50.1450 C   0  0  0  0  0  0  0  0  0  0  0  0
    0.6960    0.0670   51.3540 C   0  0  0  0  0  0  0  0  0  0  0  0
    0.5300   -0.5650   48.8420 C   0  0  0  0  0  0  0  0  0  0  0  0
    0.2150    1.4170   50.9780 C   0  0  0  0  0  0  0  0  0  0  0  0
    0.7670    0.4850   47.7480 C   0  0  0  0  0  0  0  0  0  0  0  0
    1.5060    8.8360   53.0990 C   0  0  0  0  0  0  0  0  0  0  0  0
    3.8310    9.4140   53.6180 C   0  0  0  0  0  0  0  0  0  0  0  0
    1.3520    2.3260   50.5390 C   0  0  0  0  0  0  0  0  0  0  0  0
    0.8680    1.9850   48.0910 C   0  0  0  0  0  0  0  0  0  0  0  0
    1.1320    8.5410   54.5350 C   0  0  0  0  0  0  0  0  0  0  0  0
    3.5570    9.2750   55.1240 C   0  0  0  0  0  0  0  0  0  0  0  0
    2.9480    8.4160   52.9020 C   0  0  0  0  0  0  0  0  0  0  0  0
    0.3550    8.9210   57.3300 C   0  0  0  0  0  0  0  0  0  0  0  0
    0.4150    5.8790   52.1140 C   0  0  0  0  0  0  0  0  0  0  0  0
    1.8160    2.4110   49.1410 N   0  0  0  0  0  0  0  0  0  0  0  0
    2.1200    9.0620   55.5170 N   0  0  0  0  0  0  0  0  0  0  0  0
    3.2690    3.3180   47.6770 O   0  0  0  0  0  0  0  0  0  0  0  0
    2.7300    9.2480   57.6440 O   0  0  0  0  0  0  0  0  0  0  0  0
    3.2030    8.2520   51.5340 O   0  0  0  0  0  0  0  0  0  0  0  0
    1.7820    5.8920   52.5740 O   0  0  0  0  0  0  0  0  0  0  0  0
  1  2  2  0
  1  4  1  0
  2  5  1  0
  3  4  2  0
  3  6  1  0
  4  7  1  0
  5  6  2  0
  5 27  1  0
  6 28  1  0
  7 23  1  0
  7 25  2  0
  8 21  1  0
  8 24  1  0
  8 26  2  0
  9 10  1  0
  9 11  1  0
 10 12  1  0
 11 13  1  0
 12 16  1  0
 13 17  1  0
 14 18  1  0
 14 20  1  0
 15 19  1  0
 15 20  1  0
 16 23  1  0
 17 23  1  0
 18 24  1  0
 19 24  1  0
 20 27  1  0
 22 28  1  0
M  END
>  <washed_aromatic_smiles>  (610) 
CC(=O)N1CCC(CC1)Oc2ccc(cc2OC)C(=O)N3CCCCCCC3

>  <name>  (610) 
neg52079

$$$$
neg4139
     RDKit          3D

 25 26  0  0  0  0  0  0  0  0999 V2000
    2.7000    1.8840   51.4780 C   0  0  0  0  0  0  0  0  0  0  0  0
    2.3170   -0.4530   51.0620 C   0  0  0  0  0  0  0  0  0  0  0  0
    2.9980    1.6030   52.7940 C   0  0  0  0  0  0  0  0  0  0  0  0
    2.6730   -0.7350   52.3790 C   0  0  0  0  0  0  0  0  0  0  0  0
    2.2700    0.8730   50.6190 C   0  0  0  0  0  0  0  0  0  0  0  0
    2.9690    0.3000   53.2710 C   0  0  0  0  0  0  0  0  0  0  0  0
    1.7140    1.2680   49.3380 C   0  0  0  0  0  0  0  0  0  0  0  0
    2.0200    7.4150   53.6210 C   0  0  0  0  0  0  0  0  0  0  0  0
    2.5820    4.6610   48.7890 C   0  0  0  0  0  0  0  0  0  0  0  0
    0.8120    6.2400   51.7840 C   0  0  0  0  0  0  0  0  0  0  0  0
    3.2070    5.8070   52.2230 C   0  0  0  0  0  0  0  0  0  0  0  0
    1.0260    5.2070   50.6470 C   0  0  0  0  0  0  0  0  0  0  0  0
    3.3770    5.9340   50.7020 C   0  0  0  0  0  0  0  0  0  0  0  0
    0.8540    8.3890   53.7710 C   0  0  0  0  0  0  0  0  0  0  0  0
    4.3020   -0.6220   55.8170 C   0  0  0  0  0  0  0  0  0  0  0  0
    1.7270    3.5100   48.3080 C   0  0  0  0  0  0  0  0  0  0  0  0
    1.9840    6.4810   52.6470 N   0  0  0  0  0  0  0  0  0  0  0  0
    2.3270    5.2360   49.9820 N   0  0  0  0  0  0  0  0  0  0  0  0
    0.7280    0.7860   48.8090 O   0  0  0  0  0  0  0  0  0  0  0  0
    2.9740    7.5400   54.3900 O   0  0  0  0  0  0  0  0  0  0  0  0
    3.6240    4.8990   48.1890 O   0  0  0  0  0  0  0  0  0  0  0  0
    2.6050    1.3110   55.6420 O   0  0  0  0  0  0  0  0  0  0  0  0
    1.8420   -0.9400   55.1650 O   0  0  0  0  0  0  0  0  0  0  0  0
    2.3370    2.2940   48.7550 O   0  0  0  0  0  0  0  0  0  0  0  0
    2.8410    0.0450   55.0370 S   0  0  0  0  0  0  0  0  0  0  0  0
  1  3  2  0
  1  5  1  0
  2  4  1  0
  2  5  2  0
  3  6  1  0
  4  6  2  0
  5  7  1  0
  6 25  1  0
  7 19  2  0
  7 24  1  0
  8 14  1  0
  8 17  1  0
  8 20  2  0
  9 16  1  0
  9 18  1  0
  9 21  2  0
 10 12  1  0
 10 17  1  0
 11 13  1  0
 11 17  1  0
 12 18  1  0
 13 18  1  0
 15 25  1  0
 16 24  1  0
 22 25  2  0
 23 25  2  0
M  END
>  <washed_aromatic_smiles>  (611) 
CC(=O)N1CCN(CC1)C(=O)COC(=O)c2ccc(cc2)S(=O)(=O)C

>  <name>  (611) 
neg4139

$$$$
neg140566
     RDKit          3D

 28 30  0  0  0  0  0  0  0  0999 V2000
    5.3050   12.0810   57.2170 C   0  0  0  0  0  0  0  0  0  0  0  0
    0.2690    8.1720   53.7660 C   0  0  0  0  0  0  0  0  0  0  0  0
    5.4760   12.2520   55.8450 C   0  0  0  0  0  0  0  0  0  0  0  0
    4.8600   10.8590   57.7180 C   0  0  0  0  0  0  0  0  0  0  0  0
   -0.0020    7.3360   52.6860 C   0  0  0  0  0  0  0  0  0  0  0  0
    1.5520    8.6360   53.9830 C   0  0  0  0  0  0  0  0  0  0  0  0
    5.1960   11.2110   54.9670 C   0  0  0  0  0  0  0  0  0  0  0  0
    4.5770    9.8110   56.8500 C   0  0  0  0  0  0  0  0  0  0  0  0
    0.9970    6.9770   51.8220 C   0  0  0  0  0  0  0  0  0  0  0  0
    2.5810    8.3460   53.0860 C   0  0  0  0  0  0  0  0  0  0  0  0
    4.7290    9.9890   55.4720 C   0  0  0  0  0  0  0  0  0  0  0  0
    2.2710    7.5010   51.9980 C   0  0  0  0  0  0  0  0  0  0  0  0
    3.8670    8.9850   53.3490 C   0  0  0  0  0  0  0  0  0  0  0  0
    1.1770   -0.0970   49.3580 C   0  0  0  0  0  0  0  0  0  0  0  0
    2.9200    4.7140   51.1460 C   0  0  0  0  0  0  0  0  0  0  0  0
    1.2740    2.3370   48.7720 C   0  0  0  0  0  0  0  0  0  0  0  0
    1.3240    1.5240   51.1270 C   0  0  0  0  0  0  0  0  0  0  0  0
    2.3960    3.3380   49.1040 C   0  0  0  0  0  0  0  0  0  0  0  0
    2.6070    2.3030   51.3600 C   0  0  0  0  0  0  0  0  0  0  0  0
    0.8330   -0.4450   47.9350 C   0  0  0  0  0  0  0  0  0  0  0  0
    3.2120    5.9330   50.2960 C   0  0  0  0  0  0  0  0  0  0  0  0
    1.1920    1.1920   49.7180 N   0  0  0  0  0  0  0  0  0  0  0  0
    2.6160    3.5380   50.5580 N   0  0  0  0  0  0  0  0  0  0  0  0
    4.3340    8.8920   54.6510 N   0  0  0  0  0  0  0  0  0  0  0  0
    4.4840    9.6660   52.5430 O   0  0  0  0  0  0  0  0  0  0  0  0
    1.4560   -1.0130   50.1270 O   0  0  0  0  0  0  0  0  0  0  0  0
    3.0490    4.7830   52.3670 O   0  0  0  0  0  0  0  0  0  0  0  0
    3.1740    7.1820   51.0430 O   0  0  0  0  0  0  0  0  0  0  0  0
  1  3  2  0
  1  4  1  0
  2  5  2  0
  2  6  1  0
  3  7  1  0
  4  8  2  0
  5  9  1  0
  6 10  2  0
  7 11  2  0
  8 11  1  0
  9 12  2  0
 10 12  1  0
 10 13  1  0
 11 24  1  0
 12 28  1  0
 13 24  1  0
 13 25  2  0
 14 20  1  0
 14 22  1  0
 14 26  2  0
 15 21  1  0
 15 23  1  0
 15 27  2  0
 16 18  1  0
 16 22  1  0
 17 19  1  0
 17 22  1  0
 18 23  1  0
 19 23  1  0
 21 28  1  0
M  END
>  <washed_aromatic_smiles>  (612) 
CC(=O)N1CCN(CC1)C(=O)COc2ccccc2C(=O)Nc3ccccc3

>  <name>  (612) 
neg140566

$$$$
neg14852
     RDKit          3D

 28 30  0  0  0  0  0  0  0  0999 V2000
    3.5960   -0.7210   55.3070 C   0  0  0  0  0  0  0  0  0  0  0  0
    3.3560    0.6050   55.6530 C   0  0  0  0  0  0  0  0  0  0  0  0
    3.1240   -1.2230   54.0990 C   0  0  0  0  0  0  0  0  0  0  0  0
    2.6920    1.4080   54.7810 C   0  0  0  0  0  0  0  0  0  0  0  0
    2.6190    5.8390   49.9860 C   0  0  0  0  0  0  0  0  0  0  0  0
    3.1350    4.1760   48.2970 C   0  0  0  0  0  0  0  0  0  0  0  0
    2.2600    4.8400   50.8520 C   0  0  0  0  0  0  0  0  0  0  0  0
    2.8910    3.1770   49.2230 C   0  0  0  0  0  0  0  0  0  0  0  0
    2.4470   -0.4350   53.1740 C   0  0  0  0  0  0  0  0  0  0  0  0
    2.2740    0.9120   53.5090 C   0  0  0  0  0  0  0  0  0  0  0  0
    3.0510    5.4920   48.7230 C   0  0  0  0  0  0  0  0  0  0  0  0
    2.5600    3.5140   50.5370 C   0  0  0  0  0  0  0  0  0  0  0  0
    2.2680   -0.7600   51.7730 C   0  0  0  0  0  0  0  0  0  0  0  0
   -1.9730   -0.3620   48.4800 C   0  0  0  0  0  0  0  0  0  0  0  0
   -0.1230    0.1150   51.6270 C   0  0  0  0  0  0  0  0  0  0  0  0
    1.3620    0.4420   49.8440 C   0  0  0  0  0  0  0  0  0  0  0  0
   -1.1930    0.3500   50.6000 C   0  0  0  0  0  0  0  0  0  0  0  0
    0.4290    0.0760   48.7060 C   0  0  0  0  0  0  0  0  0  0  0  0
   -3.3110   -0.9340   49.0640 C   0  0  0  0  0  0  0  0  0  0  0  0
    1.1340   -0.3810   51.0240 N   0  0  0  0  0  0  0  0  0  0  0  0
   -0.9220   -0.0640   49.2400 N   0  0  0  0  0  0  0  0  0  0  0  0
    1.9710    1.6580   52.5050 N   0  0  0  0  0  0  0  0  0  0  0  0
    3.2280   -1.1000   51.0990 O   0  0  0  0  0  0  0  0  0  0  0  0
   -1.9620    0.1510   47.3730 O   0  0  0  0  0  0  0  0  0  0  0  0
    3.2210    3.6250   52.9250 O   0  0  0  0  0  0  0  0  0  0  0  0
    4.1820    1.7520   51.6660 O   0  0  0  0  0  0  0  0  0  0  0  0
    3.4030    6.4770   47.9240 F   0  0  0  0  0  0  0  0  0  0  0  0
    3.0690    2.5970   51.9750 S   0  0  2  0  0  0  0  0  0  0  0  0
  1  2  2  0
  1  3  1  0
  2  4  1  0
  3  9  2  0
  4 10  2  0
  5  7  2  0
  5 11  1  0
  6  8  1  0
  6 11  2  0
  7 12  1  0
  8 12  2  0
  9 10  1  0
  9 13  1  0
 10 22  1  0
 11 27  1  0
 12 28  1  0
 13 20  1  0
 13 23  2  0
 14 19  1  0
 14 21  1  0
 14 24  2  0
 15 17  1  0
 15 20  1  0
 16 18  1  0
 16 20  1  0
 17 21  1  0
 18 21  1  0
 22 28  2  0
 25 28  2  0
 28 26  1  6
M  CHG  1  26  -1
M  END
>  <washed_aromatic_smiles>  (613) 
CC(=O)N1CCN(CC1)C(=O)c2ccccc2NS(=O)(=O)c3ccc(cc3)F

>  <name>  (613) 
neg14852

$$$$
neg144907
     RDKit          3D

 27 28  0  0  0  0  0  0  0  0999 V2000
    2.7500    8.3320   54.5610 C   0  0  0  0  0  0  0  0  0  0  0  0
    3.6530    6.7280   53.0340 C   0  0  0  0  0  0  0  0  0  0  0  0
    1.2960    7.1720   53.0150 C   0  0  0  0  0  0  0  0  0  0  0  0
    3.8570    7.7970   53.9220 C   0  0  0  0  0  0  0  0  0  0  0  0
    1.4790    7.9870   54.1260 C   0  0  0  0  0  0  0  0  0  0  0  0
    2.4020    6.5870   52.4320 C   0  0  0  0  0  0  0  0  0  0  0  0
    5.1120    8.5330   54.0460 C   0  0  0  0  0  0  0  0  0  0  0  0
    0.3410    8.5410   54.7720 C   0  0  0  0  0  0  0  0  0  0  0  0
    1.2020   -0.2290   49.5160 C   0  0  0  0  0  0  0  0  0  0  0  0
    3.0530    5.6200   50.1970 C   0  0  0  0  0  0  0  0  0  0  0  0
    0.6020    1.9000   48.3920 C   0  0  0  0  0  0  0  0  0  0  0  0
    1.2950    1.8070   50.7920 C   0  0  0  0  0  0  0  0  0  0  0  0
    1.5750    3.0160   48.1520 C   0  0  0  0  0  0  0  0  0  0  0  0
    2.2210    2.9660   50.4590 C   0  0  0  0  0  0  0  0  0  0  0  0
    0.8100   -0.8790   48.2320 C   0  0  0  0  0  0  0  0  0  0  0  0
    6.0140   10.8300   53.7100 C   0  0  0  0  0  0  0  0  0  0  0  0
   -0.6120    8.7340   57.1230 C   0  0  0  0  0  0  0  0  0  0  0  0
    2.5550    4.8990   49.0000 C   0  0  0  0  0  0  0  0  0  0  0  0
    0.9580    1.0780   49.5830 N   0  0  0  0  0  0  0  0  0  0  0  0
    1.6820    3.8090   49.3480 N   0  0  0  0  0  0  0  0  0  0  0  0
    2.1600    5.9500   51.1940 N   0  0  0  0  0  0  0  0  0  0  0  0
    6.2340    8.0690   54.0990 O   0  0  0  0  0  0  0  0  0  0  0  0
   -0.5930    8.9210   54.1240 O   0  0  0  0  0  0  0  0  0  0  0  0
    1.7220   -0.8960   50.4080 O   0  0  0  0  0  0  0  0  0  0  0  0
    4.2310    5.7590   50.2850 O   0  0  0  0  0  0  0  0  0  0  0  0
    4.9690    9.8820   54.0000 O   0  0  0  0  0  0  0  0  0  0  0  0
    0.3970    8.6760   56.1140 O   0  0  0  0  0  0  0  0  0  0  0  0
  1  4  2  0
  1  5  1  0
  2  4  1  0
  2  6  2  0
  3  5  2  0
  3  6  1  0
  4  7  1  0
  5  8  1  0
  6 21  1  0
  7 22  2  0
  7 26  1  0
  8 23  2  0
  8 27  1  0
  9 15  1  0
  9 19  1  0
  9 24  2  0
 10 18  1  0
 10 21  1  0
 10 25  2  0
 11 13  1  0
 11 19  1  0
 12 14  1  0
 12 19  1  0
 13 20  1  0
 14 20  1  0
 16 26  1  0
 17 27  1  0
 18 20  1  0
M  END
>  <washed_aromatic_smiles>  (614) 
CC(=O)N1CCN(CC1)CC(=O)Nc2cc(cc(c2)C(=O)OC)C(=O)OC

>  <name>  (614) 
neg144907

$$$$
neg203002
     RDKit          3D

 26 28  0  0  0  0  0  0  0  0999 V2000
    5.0680   12.2100   54.9030 C   0  0  0  0  0  0  0  0  0  0  0  0
    0.0220    7.3870   52.3970 C   0  0  0  0  0  0  0  0  0  0  0  0
    5.0400   11.7280   53.5960 C   0  0  0  0  0  0  0  0  0  0  0  0
    4.8090   11.3470   55.9660 C   0  0  0  0  0  0  0  0  0  0  0  0
    0.3550    8.4800   53.1870 C   0  0  0  0  0  0  0  0  0  0  0  0
    0.9620    6.4340   52.0870 C   0  0  0  0  0  0  0  0  0  0  0  0
    4.7570   10.3890   53.3480 C   0  0  0  0  0  0  0  0  0  0  0  0
    4.5290   10.0060   55.7270 C   0  0  0  0  0  0  0  0  0  0  0  0
    1.6430    8.6050   53.6910 C   0  0  0  0  0  0  0  0  0  0  0  0
    2.2520    6.5490   52.5900 C   0  0  0  0  0  0  0  0  0  0  0  0
    4.5020    9.5210   54.4140 C   0  0  0  0  0  0  0  0  0  0  0  0
    2.6120    7.6470   53.4010 C   0  0  0  0  0  0  0  0  0  0  0  0
    1.0730    0.0980   47.1860 C   0  0  0  0  0  0  0  0  0  0  0  0
    2.9960    4.7760   51.1350 C   0  0  0  0  0  0  0  0  0  0  0  0
    0.7700    2.3690   48.0910 C   0  0  0  0  0  0  0  0  0  0  0  0
    0.7370    0.4610   49.6110 C   0  0  0  0  0  0  0  0  0  0  0  0
    1.7610    3.0860   49.0040 C   0  0  0  0  0  0  0  0  0  0  0  0
    1.7110    1.2040   50.5400 C   0  0  0  0  0  0  0  0  0  0  0  0
    0.9300    0.6310   45.7580 C   0  0  0  0  0  0  0  0  0  0  0  0
    2.7420    3.2650   51.2220 C   0  0  0  0  0  0  0  0  0  0  0  0
    0.8400    0.9220   48.2200 N   0  0  0  0  0  0  0  0  0  0  0  0
    1.6410    2.6850   50.4250 N   0  0  0  0  0  0  0  0  0  0  0  0
    3.1050    5.4540   52.3230 N   0  0  0  0  0  0  0  0  0  0  0  0
    1.4370   -1.0640   47.3490 O   0  0  0  0  0  0  0  0  0  0  0  0
    3.1210    5.4010   50.0960 O   0  0  0  0  0  0  0  0  0  0  0  0
    4.2040    7.8220   54.1120 S   0  0  0  0  0  0  0  0  0  0  0  0
  1  3  2  0
  1  4  1  0
  2  5  2  0
  2  6  1  0
  3  7  1  0
  4  8  2  0
  5  9  1  0
  6 10  2  0
  7 11  2  0
  8 11  1  0
  9 12  2  0
 10 12  1  0
 10 23  1  0
 11 26  1  0
 12 26  1  0
 13 19  1  0
 13 21  1  0
 13 24  2  0
 14 20  1  0
 14 23  1  0
 14 25  2  0
 15 17  1  0
 15 21  1  0
 16 18  1  0
 16 21  1  0
 17 22  1  0
 18 22  1  0
 20 22  1  0
M  END
>  <washed_aromatic_smiles>  (615) 
CC(=O)N1CCN(CC1)CC(=O)Nc2ccccc2Sc3ccccc3

>  <name>  (615) 
neg203002

$$$$
neg96154
     RDKit          3D

 26 28  0  0  0  0  0  0  0  0999 V2000
    0.7210    0.3910   47.1240 C   0  0  0  0  0  0  0  0  0  0  0  0
    0.9830   -0.6210   48.0460 C   0  0  0  0  0  0  0  0  0  0  0  0
    0.6690    1.7110   47.5450 C   0  0  0  0  0  0  0  0  0  0  0  0
    0.8470    6.4430   51.5280 C   0  0  0  0  0  0  0  0  0  0  0  0
    1.1940   -0.3270   49.3810 C   0  0  0  0  0  0  0  0  0  0  0  0
    0.9490    2.0240   48.8650 C   0  0  0  0  0  0  0  0  0  0  0  0
    1.2580    5.2890   50.8980 C   0  0  0  0  0  0  0  0  0  0  0  0
    3.1360    5.1230   52.4270 C   0  0  0  0  0  0  0  0  0  0  0  0
    2.8070    6.3570   52.9520 C   0  0  0  0  0  0  0  0  0  0  0  0
    1.6630    6.9770   52.5320 C   0  0  0  0  0  0  0  0  0  0  0  0
    1.2550    1.0030   49.7760 C   0  0  0  0  0  0  0  0  0  0  0  0
    2.3900    4.6020   51.3830 C   0  0  0  0  0  0  0  0  0  0  0  0
    2.6760    8.0830   54.1500 C   0  0  0  0  0  0  0  0  0  0  0  0
    4.9220   12.1880   55.4380 C   0  0  0  0  0  0  0  0  0  0  0  0
    2.5000    2.2030   51.6010 C   0  0  0  0  0  0  0  0  0  0  0  0
    5.3860   13.0320   56.6130 C   0  0  0  0  0  0  0  0  0  0  0  0
    0.4950    9.0200   53.1430 C   0  0  0  0  0  0  0  0  0  0  0  0
    3.0620    9.1200   55.1720 C   0  0  0  0  0  0  0  0  0  0  0  0
    4.2830    9.9160   54.6880 C   0  0  0  0  0  0  0  0  0  0  0  0
    3.4140    7.0520   53.9530 N   0  0  0  0  0  0  0  0  0  0  0  0
    1.5800    8.0860   53.3010 N   0  0  0  0  0  0  0  0  0  0  0  0
    1.6900    1.2030   51.1060 N   0  0  0  0  0  0  0  0  0  0  0  0
    2.6690    3.3330   50.8360 N   0  0  0  0  0  0  0  0  0  0  0  0
    4.7090   10.8900   55.6870 N   0  0  0  0  0  0  0  0  0  0  0  0
    4.7780   12.7100   54.3340 O   0  0  0  0  0  0  0  0  0  0  0  0
    2.9940    2.0800   52.7180 O   0  0  0  0  0  0  0  0  0  0  0  0
  1  2  2  0
  1  3  1  0
  2  5  1  0
  3  6  2  0
  4  7  2  0
  4 10  1  0
  5 11  2  0
  6 11  1  0
  7 12  1  0
  8  9  1  0
  8 12  2  0
  9 10  2  0
  9 20  1  0
 10 21  1  0
 11 22  1  0
 12 23  1  0
 13 18  1  0
 13 20  2  0
 13 21  1  0
 14 16  1  0
 14 24  1  0
 14 25  2  0
 15 22  1  0
 15 23  1  0
 15 26  2  0
 17 21  1  0
 18 19  1  0
 19 24  1  0
M  END
>  <washed_aromatic_smiles>  (616) 
CC(=O)NCCc1nc2cc(ccc2n1C)NC(=O)Nc3ccccc3

>  <name>  (616) 
neg96154

$$$$
neg204457
     RDKit          3D

 32 34  0  0  0  0  0  0  0  0999 V2000
    6.2280   13.0570   59.6270 C   0  0  0  0  0  0  0  0  0  0  0  0
    6.1270   14.0990   58.7310 C   0  0  0  0  0  0  0  0  0  0  0  0
    5.8560   11.7720   59.2360 C   0  0  0  0  0  0  0  0  0  0  0  0
    5.6110   13.8570   57.4750 C   0  0  0  0  0  0  0  0  0  0  0  0
    5.4470   11.5190   57.9350 C   0  0  0  0  0  0  0  0  0  0  0  0
    3.8730   10.1470   55.5290 C   0  0  0  0  0  0  0  0  0  0  0  0
    5.1480   10.9650   53.6400 C   0  0  0  0  0  0  0  0  0  0  0  0
    2.7770    4.5530   48.6230 C   0  0  0  0  0  0  0  0  0  0  0  0
    2.1160    3.3660   50.6090 C   0  0  0  0  0  0  0  0  0  0  0  0
    3.3960    9.0990   54.7560 C   0  0  0  0  0  0  0  0  0  0  0  0
    4.6610    9.9350   52.8630 C   0  0  0  0  0  0  0  0  0  0  0  0
    2.1760    3.5530   47.8560 C   0  0  0  0  0  0  0  0  0  0  0  0
    1.4640    2.4280   49.8340 C   0  0  0  0  0  0  0  0  0  0  0  0
    5.3410   12.5680   57.0170 C   0  0  0  0  0  0  0  0  0  0  0  0
    4.7050   11.1300   54.9590 C   0  0  0  0  0  0  0  0  0  0  0  0
    2.6800    4.4810   50.0080 C   0  0  0  0  0  0  0  0  0  0  0  0
    3.7510    9.0360   53.4060 C   0  0  0  0  0  0  0  0  0  0  0  0
    1.4610    2.5100   48.4370 C   0  0  0  0  0  0  0  0  0  0  0  0
    4.9990   12.3970   55.6070 C   0  0  0  0  0  0  0  0  0  0  0  0
    0.8500   -0.7250   48.8740 C   0  0  0  0  0  0  0  0  0  0  0  0
    2.1900    6.0360   51.8150 C   0  0  0  0  0  0  0  0  0  0  0  0
    1.4220   -0.7760   50.2730 C   0  0  0  0  0  0  0  0  0  0  0  0
    2.7610    6.8380   52.9550 C   0  0  0  0  0  0  0  0  0  0  0  0
    3.0580    5.5470   50.8550 N   0  0  0  0  0  0  0  0  0  0  0  0
   -0.0470    0.2500   48.5930 N   0  0  0  0  0  0  0  0  0  0  0  0
    4.9720   13.3920   54.8940 O   0  0  0  0  0  0  0  0  0  0  0  0
    1.2940   -1.3930   47.9760 O   0  0  0  0  0  0  0  0  0  0  0  0
    0.9980    5.7820   51.7600 O   0  0  0  0  0  0  0  0  0  0  0  0
   -0.6540    2.0870   46.9580 O   0  0  0  0  0  0  0  0  0  0  0  0
    1.1760    0.7230   46.4180 O   0  0  0  0  0  0  0  0  0  0  0  0
    3.1950    8.1350   52.5500 O   0  0  0  0  0  0  0  0  0  0  0  0
    0.4460    1.3720   47.4400 S   0  0  0  0  0  0  0  0  0  0  0  0
  1  2  2  0
  1  3  1  0
  2  4  1  0
  3  5  2  0
  4 14  2  0
  5 14  1  0
  6 10  2  0
  6 15  1  0
  7 11  1  0
  7 15  2  0
  8 12  2  0
  8 16  1  0
  9 13  1  0
  9 16  2  0
 10 17  1  0
 11 17  2  0
 12 18  1  0
 13 18  2  0
 14 19  1  0
 15 19  1  0
 16 24  1  0
 17 31  1  0
 18 32  1  0
 19 26  2  0
 20 22  1  0
 20 25  1  0
 20 27  2  0
 21 23  1  0
 21 24  1  0
 21 28  2  0
 23 31  1  0
 25 32  1  0
 29 32  2  0
 30 32  2  0
M  END
>  <washed_aromatic_smiles>  (617) 
CC(=O)NS(=O)(=O)c1ccc(cc1)NC(=O)COc2ccc(cc2)C(=O)c3ccccc3

>  <name>  (617) 
neg204457

$$$$
neg291131
     RDKit          3D

 34 36  0  0  0  0  0  0  0  0999 V2000
    2.8250    9.4040   55.0510 C   0  0  0  0  0  0  0  0  0  0  0  0
    1.7570    8.5400   54.8680 C   0  0  0  0  0  0  0  0  0  0  0  0
   -1.8900    0.1530   50.2170 C   0  0  0  0  0  0  0  0  0  0  0  0
   -0.8390   -0.1530   48.1380 C   0  0  0  0  0  0  0  0  0  0  0  0
   -0.6760    0.3330   50.8530 C   0  0  0  0  0  0  0  0  0  0  0  0
    0.3810   -0.1970   48.7550 C   0  0  0  0  0  0  0  0  0  0  0  0
    3.6190    8.8890   52.8090 C   0  0  0  0  0  0  0  0  0  0  0  0
    3.7150    9.6250   53.9900 C   0  0  0  0  0  0  0  0  0  0  0  0
    2.6970    7.8480   52.7540 C   0  0  0  0  0  0  0  0  0  0  0  0
   -1.9430   -0.2980   48.9370 C   0  0  0  0  0  0  0  0  0  0  0  0
    1.6980    7.7620   53.7230 C   0  0  0  0  0  0  0  0  0  0  0  0
    0.4620   -0.0020   50.1350 C   0  0  0  0  0  0  0  0  0  0  0  0
    5.1650   11.3210   55.1250 C   0  0  0  0  0  0  0  0  0  0  0  0
    2.9650    6.5830   50.5380 C   0  0  0  0  0  0  0  0  0  0  0  0
    2.8290    2.4280   52.4130 C   0  0  0  0  0  0  0  0  0  0  0  0
    2.7110    3.8690   51.8260 C   0  0  0  0  0  0  0  0  0  0  0  0
    3.7100    1.4160   51.7180 C   0  0  0  0  0  0  0  0  0  0  0  0
    1.9190    3.0400   49.7560 C   0  0  0  0  0  0  0  0  0  0  0  0
    2.6810    1.7790   49.4470 C   0  0  0  0  0  0  0  0  0  0  0  0
    5.8030   12.6540   54.8540 C   0  0  0  0  0  0  0  0  0  0  0  0
   -3.9160   -1.8260   49.3150 C   0  0  0  0  0  0  0  0  0  0  0  0
   -0.1390    7.0760   52.3110 C   0  0  0  0  0  0  0  0  0  0  0  0
    2.3850    5.3400   49.8990 C   0  0  0  0  0  0  0  0  0  0  0  0
    2.8050    4.0090   50.3740 N   0  0  0  0  0  0  0  0  0  0  0  0
    2.9850    0.8630   50.5930 N   0  0  0  0  0  0  0  0  0  0  0  0
    4.6690   10.6740   54.0200 N   0  0  0  0  0  0  0  0  0  0  0  0
    2.7120    6.7510   51.8650 N   0  0  0  0  0  0  0  0  0  0  0  0
    5.0740   10.8600   56.2470 O   0  0  0  0  0  0  0  0  0  0  0  0
    3.4770    7.4400   49.8720 O   0  0  0  0  0  0  0  0  0  0  0  0
    2.4420   -1.5290   50.2590 O   0  0  0  0  0  0  0  0  0  0  0  0
    1.7600   -0.5260   52.3340 O   0  0  0  0  0  0  0  0  0  0  0  0
   -3.0950   -0.8710   48.5940 O   0  0  0  0  0  0  0  0  0  0  0  0
    0.6290    6.9180   53.5300 O   0  0  0  0  0  0  0  0  0  0  0  0
    1.9740   -0.3940   50.9270 S   0  0  0  0  0  0  0  0  0  0  0  0
  1  2  2  0
  1  8  1  0
  2 11  1  0
  3  5  2  0
  3 10  1  0
  4  6  1  0
  4 10  2  0
  5 12  1  0
  6 12  2  0
  7  8  2  0
  7  9  1  0
  8 26  1  0
  9 11  2  0
  9 27  1  0
 10 32  1  0
 11 33  1  0
 12 34  1  0
 13 20  1  0
 13 26  1  0
 13 28  2  0
 14 23  1  0
 14 27  1  0
 14 29  2  0
 15 16  1  0
 15 17  1  0
 16 24  1  0
 17 25  1  0
 18 19  1  0
 18 24  1  0
 19 25  1  0
 21 32  1  0
 22 33  1  0
 23 24  1  0
 25 34  1  0
 30 34  2  0
 31 34  2  0
M  END
>  <washed_aromatic_smiles>  (618) 
CC(=O)Nc1ccc(c(c1)NC(=O)CN2CCCN(CC2)S(=O)(=O)c3ccc(cc3)OC)OC

>  <name>  (618) 
neg291131

$$$$
neg135962
     RDKit          3D

 25 26  0  0  0  0  0  0  0  0999 V2000
    4.2650    2.0740   57.1110 C   0  0  0  0  0  0  0  0  0  0  0  0
    3.3180    2.0560   56.0950 C   0  0  0  0  0  0  0  0  0  0  0  0
    4.9790    0.9400   57.4170 C   0  0  0  0  0  0  0  0  0  0  0  0
    1.5280    3.7630   49.5610 C   0  0  0  0  0  0  0  0  0  0  0  0
    2.1280    4.5730   50.4980 C   0  0  0  0  0  0  0  0  0  0  0  0
    3.8450   -0.2200   55.6240 C   0  0  0  0  0  0  0  0  0  0  0  0
    2.0200    1.7780   50.8980 C   0  0  0  0  0  0  0  0  0  0  0  0
    3.1840    0.9470   55.2510 C   0  0  0  0  0  0  0  0  0  0  0  0
    4.7670   -0.2120   56.6780 C   0  0  0  0  0  0  0  0  0  0  0  0
    1.4970    2.3720   49.7520 C   0  0  0  0  0  0  0  0  0  0  0  0
    2.5770    2.6050   51.8650 C   0  0  0  0  0  0  0  0  0  0  0  0
    2.6540    4.0040   51.6500 C   0  0  0  0  0  0  0  0  0  0  0  0
    2.5360    1.0440   53.9330 C   0  0  0  0  0  0  0  0  0  0  0  0
    0.8900    1.7780   47.4610 C   0  0  0  0  0  0  0  0  0  0  0  0
    0.2800    0.7460   46.5840 C   0  0  0  0  0  0  0  0  0  0  0  0
    2.9780    6.2820   52.6720 C   0  0  0  0  0  0  0  0  0  0  0  0
    5.5820   -1.4210   57.0030 C   0  0  0  0  0  0  0  0  0  0  0  0
    2.9750    2.1000   53.1340 N   0  0  0  0  0  0  0  0  0  0  0  0
    0.9030    1.5230   48.8000 N   0  0  0  0  0  0  0  0  0  0  0  0
    1.7040    0.2470   53.5140 O   0  0  0  0  0  0  0  0  0  0  0  0
    1.4300    2.7540   47.0060 O   0  0  0  0  0  0  0  0  0  0  0  0
    3.2260    4.8490   52.5920 O   0  0  0  0  0  0  0  0  0  0  0  0
    4.9540   -2.1890   57.8950 F   0  0  0  0  0  0  0  0  0  0  0  0
    5.8010   -2.1220   55.9040 F   0  0  0  0  0  0  0  0  0  0  0  0
    6.7950   -1.1420   57.5130 F   0  0  0  0  0  0  0  0  0  0  0  0
  1  2  2  0
  1  3  1  0
  2  8  1  0
  3  9  2  0
  4  5  2  0
  4 10  1  0
  5 12  1  0
  6  8  2  0
  6  9  1  0
  7 10  2  0
  7 11  1  0
  8 13  1  0
  9 17  1  0
 10 19  1  0
 11 12  2  0
 11 18  1  0
 12 22  1  0
 13 18  1  0
 13 20  2  0
 14 15  1  0
 14 19  1  0
 14 21  2  0
 16 22  1  0
 17 23  1  0
 17 24  1  0
 17 25  1  0
M  END
>  <washed_aromatic_smiles>  (619) 
CC(=O)Nc1ccc(c(c1)NC(=O)c2cccc(c2)C(F)(F)F)OC

>  <name>  (619) 
neg135962

$$$$
neg5012
     RDKit          3D

 31 33  0  0  0  0  0  0  0  0999 V2000
    1.7590    0.2210   50.6800 C   0  0  0  0  0  0  0  0  0  0  0  0
    1.9350    7.5550   52.1050 C   0  0  0  0  0  0  0  0  0  0  0  0
    3.6530    6.3790   53.2590 C   0  0  0  0  0  0  0  0  0  0  0  0
    1.3030    0.7590   49.4870 C   0  0  0  0  0  0  0  0  0  0  0  0
    2.4360    8.7590   52.5940 C   0  0  0  0  0  0  0  0  0  0  0  0
    4.1340    7.5770   53.7560 C   0  0  0  0  0  0  0  0  0  0  0  0
    2.4670    2.4260   51.3790 C   0  0  0  0  0  0  0  0  0  0  0  0
    2.6750    6.3600   52.2540 C   0  0  0  0  0  0  0  0  0  0  0  0
    2.3280    1.0720   51.6290 C   0  0  0  0  0  0  0  0  0  0  0  0
    1.4020    2.1390   49.2530 C   0  0  0  0  0  0  0  0  0  0  0  0
    3.6260    8.7930   53.3280 C   0  0  0  0  0  0  0  0  0  0  0  0
    1.9710    2.9970   50.2140 C   0  0  0  0  0  0  0  0  0  0  0  0
    2.8120   -0.5250   53.4890 C   0  0  0  0  0  0  0  0  0  0  0  0
    4.3220   10.2850   58.3060 C   0  0  0  0  0  0  0  0  0  0  0  0
    3.5530    9.2930   57.4230 C   0  0  0  0  0  0  0  0  0  0  0  0
    5.4420   10.9260   57.5070 C   0  0  0  0  0  0  0  0  0  0  0  0
    3.1670    9.9210   56.0960 C   0  0  0  0  0  0  0  0  0  0  0  0
    5.0190   11.4510   56.1350 C   0  0  0  0  0  0  0  0  0  0  0  0
    3.0470   -0.5100   54.9710 C   0  0  0  0  0  0  0  0  0  0  0  0
    0.3040    1.8780   47.0140 C   0  0  0  0  0  0  0  0  0  0  0  0
    4.3650   10.3880   55.3950 N   0  0  0  0  0  0  0  0  0  0  0  0
    2.7350    0.7060   52.9250 N   0  0  0  0  0  0  0  0  0  0  0  0
    2.6150    5.2810   51.4830 N   0  0  0  0  0  0  0  0  0  0  0  0
    2.7000   -1.5430   52.8430 O   0  0  0  0  0  0  0  0  0  0  0  0
    5.9660    9.9530   53.5090 O   0  0  0  0  0  0  0  0  0  0  0  0
    4.0660   11.3820   53.0920 O   0  0  0  0  0  0  0  0  0  0  0  0
    0.6890    5.2570   49.9050 O   0  0  0  0  0  0  0  0  0  0  0  0
    2.9580    5.1040   49.0130 O   0  0  0  0  0  0  0  0  0  0  0  0
    0.9220    2.6710   48.0670 O   0  0  0  0  0  0  0  0  0  0  0  0
    4.5860   10.2350   53.7560 S   0  0  0  0  0  0  0  0  0  0  0  0
    2.0290    4.7910   50.0610 S   0  0  2  0  0  0  0  0  0  0  0  0
  1  4  2  0
  1  9  1  0
  2  5  2  0
  2  8  1  0
  3  6  1  0
  3  8  2  0
  4 10  1  0
  5 11  1  0
  6 11  2  0
  7  9  2  0
  7 12  1  0
  8 23  1  0
  9 22  1  0
 10 12  2  0
 10 29  1  0
 11 30  1  0
 12 31  1  0
 13 19  1  0
 13 22  1  0
 13 24  2  0
 14 15  1  0
 14 16  1  0
 15 17  1  0
 16 18  1  0
 17 21  1  0
 18 21  1  0
 20 29  1  0
 21 30  1  0
 23 31  2  0
 25 30  2  0
 26 30  2  0
 27 31  2  0
 31 28  1  6
M  CHG  1  28  -1
M  END
>  <washed_aromatic_smiles>  (620) 
CC(=O)Nc1ccc(c(c1)S(=O)(=O)Nc2ccc(cc2)S(=O)(=O)N3CCCCC3)OC

>  <name>  (620) 
neg5012

$$$$
neg31841
     RDKit          3D

 27 28  0  0  0  0  0  0  0  0999 V2000
    5.2040   11.9110   58.7430 C   0  0  0  0  0  0  0  0  0  0  0  0
    4.2770   11.1550   58.0370 C   0  0  0  0  0  0  0  0  0  0  0  0
    6.0080   12.8140   58.0700 C   0  0  0  0  0  0  0  0  0  0  0  0
    2.7870    5.3760   49.7980 C   0  0  0  0  0  0  0  0  0  0  0  0
    2.7390    4.0950   51.8270 C   0  0  0  0  0  0  0  0  0  0  0  0
    2.4400    4.2450   49.0680 C   0  0  0  0  0  0  0  0  0  0  0  0
    2.4080    2.9560   51.1140 C   0  0  0  0  0  0  0  0  0  0  0  0
    4.1400   11.3200   56.6640 C   0  0  0  0  0  0  0  0  0  0  0  0
    5.9340   12.8980   56.6870 C   0  0  0  0  0  0  0  0  0  0  0  0
    2.8630    5.3440   51.2010 C   0  0  0  0  0  0  0  0  0  0  0  0
    2.1990    3.0420   49.7420 C   0  0  0  0  0  0  0  0  0  0  0  0
    4.9940   12.1790   55.9660 C   0  0  0  0  0  0  0  0  0  0  0  0
    3.0440    6.5730   51.9720 C   0  0  0  0  0  0  0  0  0  0  0  0
    0.9320    1.7630   48.0160 C   0  0  0  0  0  0  0  0  0  0  0  0
    5.3410    8.2500   54.0060 C   0  0  0  0  0  0  0  0  0  0  0  0
    0.4340    0.3830   47.6900 C   0  0  0  0  0  0  0  0  0  0  0  0
    3.3730    6.6150   53.4470 C   0  0  0  0  0  0  0  0  0  0  0  0
    5.6150    9.6620   54.3400 C   0  0  0  0  0  0  0  0  0  0  0  0
    4.6770   10.6340   53.6530 C   0  0  0  0  0  0  0  0  0  0  0  0
    1.7380    1.8630   49.1220 N   0  0  0  0  0  0  0  0  0  0  0  0
    2.8960    7.6450   51.4550 O   0  0  0  0  0  0  0  0  0  0  0  0
    0.6360    2.7270   47.3470 O   0  0  0  0  0  0  0  0  0  0  0  0
    6.3300    7.5730   53.7890 O   0  0  0  0  0  0  0  0  0  0  0  0
    3.9570   13.1250   53.7490 O   0  0  0  0  0  0  0  0  0  0  0  0
    6.2930   12.6230   53.7040 O   0  0  0  0  0  0  0  0  0  0  0  0
    4.0500    7.8390   53.9110 O   0  0  0  0  0  0  0  0  0  0  0  0
    5.0020   12.2870   54.1670 S   0  0  0  0  0  0  0  0  0  0  0  0
  1  2  2  0
  1  3  1  0
  2  8  1  0
  3  9  2  0
  4  6  2  0
  4 10  1  0
  5  7  1  0
  5 10  2  0
  6 11  1  0
  7 11  2  0
  8 12  2  0
  9 12  1  0
 10 13  1  0
 11 20  1  0
 12 27  1  0
 13 17  1  0
 13 21  2  0
 14 16  1  0
 14 20  1  0
 14 22  2  0
 15 18  1  0
 15 23  2  0
 15 26  1  0
 17 26  1  0
 18 19  1  0
 19 27  1  0
 24 27  2  0
 25 27  2  0
M  END
>  <washed_aromatic_smiles>  (621) 
CC(=O)Nc1ccc(cc1)C(=O)COC(=O)CCS(=O)(=O)c2ccccc2

>  <name>  (621) 
neg31841

$$$$
neg106879
     RDKit          3D

 26 28  0  0  0  0  0  0  0  0999 V2000
    1.3460    0.0100   52.7490 C   0  0  0  0  0  0  0  0  0  0  0  0
    2.2100   -0.7560   51.9550 C   0  0  0  0  0  0  0  0  0  0  0  0
    0.2130    0.5910   52.1590 C   0  0  0  0  0  0  0  0  0  0  0  0
    3.3450    6.4260   53.3680 C   0  0  0  0  0  0  0  0  0  0  0  0
    3.1830    8.4110   52.0800 C   0  0  0  0  0  0  0  0  0  0  0  0
    1.9530   -0.8900   50.5800 C   0  0  0  0  0  0  0  0  0  0  0  0
   -0.0740    0.4240   50.8040 C   0  0  0  0  0  0  0  0  0  0  0  0
    3.4660    7.1980   54.5230 C   0  0  0  0  0  0  0  0  0  0  0  0
    3.2920    9.2000   53.2090 C   0  0  0  0  0  0  0  0  0  0  0  0
    3.1170    7.0150   52.1270 C   0  0  0  0  0  0  0  0  0  0  0  0
    0.8320   -0.2680   49.9920 C   0  0  0  0  0  0  0  0  0  0  0  0
    3.4260    8.5920   54.4500 C   0  0  0  0  0  0  0  0  0  0  0  0
    1.3630    2.3790   48.4450 C   0  0  0  0  0  0  0  0  0  0  0  0
    2.1850    4.1470   49.8000 C   0  0  0  0  0  0  0  0  0  0  0  0
    3.0320    6.2310   50.8840 C   0  0  0  0  0  0  0  0  0  0  0  0
    4.0330    9.2130   56.8370 C   0  0  0  0  0  0  0  0  0  0  0  0
    4.2690   10.4410   57.6810 C   0  0  0  0  0  0  0  0  0  0  0  0
    0.6320   -0.2320   48.4960 C   0  0  0  0  0  0  0  0  0  0  0  0
    0.7090    1.1480   47.7930 C   0  0  0  0  0  0  0  0  0  0  0  0
    1.3740    3.5290   47.8410 N   0  0  0  0  0  0  0  0  0  0  0  0
    1.8580    4.5650   48.6130 N   0  0  0  0  0  0  0  0  0  0  0  0
    3.5970    9.4680   55.5550 N   0  0  0  0  0  0  0  0  0  0  0  0
    2.5620    4.9300   50.9270 N   0  0  0  0  0  0  0  0  0  0  0  0
    3.4190    6.6560   49.7990 O   0  0  0  0  0  0  0  0  0  0  0  0
    4.2520    8.0920   57.2490 O   0  0  0  0  0  0  0  0  0  0  0  0
    2.0570    2.4700   50.0140 S   0  0  0  0  0  0  0  0  0  0  0  0
  1  2  2  0
  1  3  1  0
  2  6  1  0
  3  7  2  0
  4  8  2  0
  4 10  1  0
  5  9  1  0
  5 10  2  0
  6 11  2  0
  7 11  1  0
  8 12  1  0
  9 12  2  0
 10 15  1  0
 11 18  1  0
 12 22  1  0
 13 19  1  0
 13 20  2  0
 13 26  1  0
 14 21  2  0
 14 23  1  0
 14 26  1  0
 15 23  1  0
 15 24  2  0
 16 17  1  0
 16 22  1  0
 16 25  2  0
 18 19  1  0
 20 21  1  0
M  END
>  <washed_aromatic_smiles>  (622) 
CC(=O)Nc1ccc(cc1)C(=O)Nc2nnc(s2)CCc3ccccc3

>  <name>  (622) 
neg106879

$$$$
neg6028
     RDKit          3D

 32 34  0  0  0  0  0  0  0  0999 V2000
    5.5070   12.9430   56.2090 C   0  0  0  0  0  0  0  0  0  0  0  0
    5.0190   10.7730   57.1630 C   0  0  0  0  0  0  0  0  0  0  0  0
    5.7900   13.4370   57.4690 C   0  0  0  0  0  0  0  0  0  0  0  0
    5.3050   11.2630   58.4300 C   0  0  0  0  0  0  0  0  0  0  0  0
    1.4790    5.9100   51.7470 C   0  0  0  0  0  0  0  0  0  0  0  0
    3.2570    6.1760   50.1340 C   0  0  0  0  0  0  0  0  0  0  0  0
    1.1860    4.6910   51.1640 C   0  0  0  0  0  0  0  0  0  0  0  0
    2.9820    4.9320   49.5990 C   0  0  0  0  0  0  0  0  0  0  0  0
    5.1410   11.6010   56.0320 C   0  0  0  0  0  0  0  0  0  0  0  0
    5.7240   12.5890   58.5710 C   0  0  0  0  0  0  0  0  0  0  0  0
    2.5480    6.6310   51.2460 C   0  0  0  0  0  0  0  0  0  0  0  0
    1.9620    4.1560   50.1370 C   0  0  0  0  0  0  0  0  0  0  0  0
    4.8920   11.1100   54.6890 C   0  0  0  0  0  0  0  0  0  0  0  0
    7.0140   14.0270   60.1140 C   0  0  0  0  0  0  0  0  0  0  0  0
    3.1840    8.1560   53.1090 C   0  0  0  0  0  0  0  0  0  0  0  0
    2.7610    1.7420   52.0180 C   0  0  0  0  0  0  0  0  0  0  0  0
    1.2540    0.1610   50.9140 C   0  0  0  0  0  0  0  0  0  0  0  0
    2.6540    0.7330   53.1810 C   0  0  0  0  0  0  0  0  0  0  0  0
    2.3510   -0.8220   51.3720 C   0  0  0  0  0  0  0  0  0  0  0  0
    6.9010   14.7500   61.4310 C   0  0  0  0  0  0  0  0  0  0  0  0
    3.7810    9.5350   53.2380 C   0  0  0  0  0  0  0  0  0  0  0  0
    1.6800    1.5730   51.0120 N   0  0  0  0  0  0  0  0  0  0  0  0
    6.0340   13.0970   59.8440 N   0  0  0  0  0  0  0  0  0  0  0  0
    2.9060    7.8600   51.8060 N   0  0  0  0  0  0  0  0  0  0  0  0
    5.1950   11.7400   53.6810 O   0  0  0  0  0  0  0  0  0  0  0  0
    7.9150   14.2400   59.3260 O   0  0  0  0  0  0  0  0  0  0  0  0
    3.0010    7.3660   54.0200 O   0  0  0  0  0  0  0  0  0  0  0  0
    0.5980    2.3110   48.8290 O   0  0  0  0  0  0  0  0  0  0  0  0
    2.9760    2.1060   48.9450 O   0  0  0  0  0  0  0  0  0  0  0  0
    2.7170   -0.6250   52.7380 O   0  0  0  0  0  0  0  0  0  0  0  0
    4.2630    9.9140   54.5490 O   0  0  0  0  0  0  0  0  0  0  0  0
    1.7830    2.4580   49.6030 S   0  0  0  0  0  0  0  0  0  0  0  0
  1  3  2  0
  1  9  1  0
  2  4  1  0
  2  9  2  0
  3 10  1  0
  4 10  2  0
  5  7  2  0
  5 11  1  0
  6  8  1  0
  6 11  2  0
  7 12  1  0
  8 12  2  0
  9 13  1  0
 10 23  1  0
 11 24  1  0
 12 32  1  0
 13 25  2  0
 13 31  1  0
 14 20  1  0
 14 23  1  0
 14 26  2  0
 15 21  1  0
 15 24  1  0
 15 27  2  0
 16 18  1  0
 16 22  1  0
 17 19  1  0
 17 22  1  0
 18 30  1  0
 19 30  1  0
 21 31  1  0
 22 32  1  0
 28 32  2  0
 29 32  2  0
M  END
>  <washed_aromatic_smiles>  (623) 
CC(=O)Nc1ccc(cc1)C(=O)OCC(=O)Nc2ccc(cc2)S(=O)(=O)N3CCOCC3

>  <name>  (623) 
neg6028

$$$$
neg42861
     RDKit          3D

 29 30  0  0  0  0  0  0  0  0999 V2000
    1.6510    4.6770   50.5940 C   0  0  0  0  0  0  0  0  0  0  0  0
    3.2190    6.0250   49.3580 C   0  0  0  0  0  0  0  0  0  0  0  0
    1.0990   -0.5360   53.3790 C   0  0  0  0  0  0  0  0  0  0  0  0
    2.4190    1.0480   52.1500 C   0  0  0  0  0  0  0  0  0  0  0  0
    1.6700    5.5810   51.6430 C   0  0  0  0  0  0  0  0  0  0  0  0
    3.1870    6.9550   50.3790 C   0  0  0  0  0  0  0  0  0  0  0  0
    2.0030   -0.5240   54.4150 C   0  0  0  0  0  0  0  0  0  0  0  0
    3.3510    1.0370   53.1680 C   0  0  0  0  0  0  0  0  0  0  0  0
    2.4160    4.8890   49.4340 C   0  0  0  0  0  0  0  0  0  0  0  0
    1.2340    0.3170   52.2780 C   0  0  0  0  0  0  0  0  0  0  0  0
    2.4800    6.7080   51.5490 C   0  0  0  0  0  0  0  0  0  0  0  0
    3.0950    0.3120   54.3390 C   0  0  0  0  0  0  0  0  0  0  0  0
    2.3610    3.9890   48.3030 C   0  0  0  0  0  0  0  0  0  0  0  0
    0.0870    0.5740   51.4270 C   0  0  0  0  0  0  0  0  0  0  0  0
    1.8990    7.8640   53.6970 C   0  0  0  0  0  0  0  0  0  0  0  0
    3.7430    1.4210   56.4010 C   0  0  0  0  0  0  0  0  0  0  0  0
    2.5550    8.6560   54.8000 C   0  0  0  0  0  0  0  0  0  0  0  0
    4.7300    1.4550   57.5420 C   0  0  0  0  0  0  0  0  0  0  0  0
    1.4380    1.3660   48.9210 C   0  0  0  0  0  0  0  0  0  0  0  0
    0.8610    2.1380   47.7380 C   0  0  0  0  0  0  0  0  0  0  0  0
    0.9220   -0.0400   49.2320 C   0  0  0  0  0  0  0  0  0  0  0  0
    2.6970    7.6090   52.6110 N   0  0  0  0  0  0  0  0  0  0  0  0
    3.8780    0.4120   55.4980 N   0  0  0  0  0  0  0  0  0  0  0  0
    3.3460    3.5960   47.7000 O   0  0  0  0  0  0  0  0  0  0  0  0
   -0.7440    1.3870   51.7460 O   0  0  0  0  0  0  0  0  0  0  0  0
    0.7540    7.4680   53.7610 O   0  0  0  0  0  0  0  0  0  0  0  0
    2.8510    2.2260   56.2530 O   0  0  0  0  0  0  0  0  0  0  0  0
    1.1420    3.5440   47.9200 O   0  0  0  0  0  0  0  0  0  0  0  0
   -0.1110    0.0290   50.2070 O   0  0  0  0  0  0  0  0  0  0  0  0
  1  5  2  0
  1  9  1  0
  2  6  1  0
  2  9  2  0
  3  7  2  0
  3 10  1  0
  4  8  1  0
  4 10  2  0
  5 11  1  0
  6 11  2  0
  7 12  1  0
  8 12  2  0
  9 13  1  0
 10 14  1  0
 11 22  1  0
 12 23  1  0
 13 24  2  0
 13 28  1  0
 14 25  2  0
 14 29  1  0
 15 17  1  0
 15 22  1  0
 15 26  2  0
 16 18  1  0
 16 23  1  0
 16 27  2  0
 19 20  1  0
 19 21  1  0
 20 28  1  0
 21 29  1  0
M  END
>  <washed_aromatic_smiles>  (624) 
CC(=O)Nc1ccc(cc1)C(=O)OCCCOC(=O)c2ccc(cc2)NC(=O)C

>  <name>  (624) 
neg42861

$$$$
neg94095
     RDKit          3D

 26 29  0  0  0  0  0  0  0  0999 V2000
    0.4820    1.1370   47.6720 C   0  0  0  0  0  0  0  0  0  0  0  0
    0.8200    0.2000   48.6320 C   0  0  0  0  0  0  0  0  0  0  0  0
    0.8080    2.4790   47.8680 C   0  0  0  0  0  0  0  0  0  0  0  0
    2.7840    1.4130   52.1760 C   0  0  0  0  0  0  0  0  0  0  0  0
    2.8420    6.9160   51.0840 C   0  0  0  0  0  0  0  0  0  0  0  0
    0.7160    6.2240   52.0220 C   0  0  0  0  0  0  0  0  0  0  0  0
    2.9120    7.9500   52.0190 C   0  0  0  0  0  0  0  0  0  0  0  0
    0.7810    7.2780   52.9260 C   0  0  0  0  0  0  0  0  0  0  0  0
    2.6090    0.0720   51.9450 C   0  0  0  0  0  0  0  0  0  0  0  0
    1.5040    0.5850   49.8010 C   0  0  0  0  0  0  0  0  0  0  0  0
    1.7650    1.9520   50.0300 C   0  0  0  0  0  0  0  0  0  0  0  0
    1.4350    2.9000   49.0370 C   0  0  0  0  0  0  0  0  0  0  0  0
    2.3670    2.3710   51.2370 C   0  0  0  0  0  0  0  0  0  0  0  0
    1.7970    6.0000   51.1640 C   0  0  0  0  0  0  0  0  0  0  0  0
    1.9270    8.0570   52.9940 C   0  0  0  0  0  0  0  0  0  0  0  0
    2.0020   -0.3690   50.7520 C   0  0  0  0  0  0  0  0  0  0  0  0
    1.7610    4.2910   49.2740 C   0  0  0  0  0  0  0  0  0  0  0  0
    2.5120    3.7620   51.4990 C   0  0  0  0  0  0  0  0  0  0  0  0
    3.1410    8.8030   55.0050 C   0  0  0  0  0  0  0  0  0  0  0  0
    3.0010    9.5130   56.3320 C   0  0  0  0  0  0  0  0  0  0  0  0
    1.9880    4.6960   50.6000 N   0  0  0  0  0  0  0  0  0  0  0  0
    2.0840    8.8950   54.1250 N   0  0  0  0  0  0  0  0  0  0  0  0
    1.9000    5.0970   48.3680 O   0  0  0  0  0  0  0  0  0  0  0  0
    3.0380    4.2110   52.5200 O   0  0  0  0  0  0  0  0  0  0  0  0
    4.1290    8.1460   54.7380 O   0  0  0  0  0  0  0  0  0  0  0  0
    1.9440   -1.5780   50.4960 O   0  0  0  0  0  0  0  0  0  0  0  0
  1  2  2  0
  1  3  1  0
  2 10  1  0
  3 12  2  0
  4  9  2  0
  4 13  1  0
  5  7  2  0
  5 14  1  0
  6  8  1  0
  6 14  2  0
  7 15  1  0
  8 15  2  0
  9 16  1  0
 10 11  2  0
 10 16  1  0
 11 12  1  0
 11 13  1  0
 12 17  1  0
 13 18  1  0
 14 21  1  0
 15 22  1  0
 16 26  2  0
 17 21  1  0
 17 23  2  0
 18 21  1  0
 18 24  2  0
 19 20  1  0
 19 22  1  0
 19 25  2  0
M  CHG  1  13  -1
M  END
>  <washed_aromatic_smiles>  (625) 
CC(=O)Nc1ccc(cc1)N2C(=O)c3cccc4c3c(ccc4O)C2=O

>  <name>  (625) 
neg94095

$$$$
neg189500
     RDKit          3D

 26 28  0  0  0  0  0  0  0  0999 V2000
    5.0690   12.8210   56.3920 C   0  0  0  0  0  0  0  0  0  0  0  0
    2.2420    4.9170   49.5640 C   0  0  0  0  0  0  0  0  0  0  0  0
    2.1630    2.9730   50.9940 C   0  0  0  0  0  0  0  0  0  0  0  0
    1.7560    4.1690   48.5120 C   0  0  0  0  0  0  0  0  0  0  0  0
    1.7090    2.2040   49.9230 C   0  0  0  0  0  0  0  0  0  0  0  0
    5.1810   11.4900   56.0010 C   0  0  0  0  0  0  0  0  0  0  0  0
    5.0700   13.6710   55.3240 C   0  0  0  0  0  0  0  0  0  0  0  0
    2.3450    4.3550   50.8390 C   0  0  0  0  0  0  0  0  0  0  0  0
    1.4640    2.8240   48.6890 C   0  0  0  0  0  0  0  0  0  0  0  0
    5.2910   11.3500   54.6390 C   0  0  0  0  0  0  0  0  0  0  0  0
    5.3900   10.1270   53.9090 C   0  0  0  0  0  0  0  0  0  0  0  0
    2.6150    6.5460   52.1020 C   0  0  0  0  0  0  0  0  0  0  0  0
    0.8050    0.8710   47.2510 C   0  0  0  0  0  0  0  0  0  0  0  0
    1.9550    8.7720   53.1930 C   0  0  0  0  0  0  0  0  0  0  0  0
    3.2270    7.1700   54.5500 C   0  0  0  0  0  0  0  0  0  0  0  0
    3.2670    9.5430   52.9410 C   0  0  0  0  0  0  0  0  0  0  0  0
    4.5140    7.9600   54.3450 C   0  0  0  0  0  0  0  0  0  0  0  0
    2.2210    7.2720   53.3940 C   0  0  0  0  0  0  0  0  0  0  0  0
    0.8900    0.5490   45.7820 C   0  0  0  0  0  0  0  0  0  0  0  0
    4.2880    9.3270   53.9620 N   0  0  0  0  0  0  0  0  0  0  0  0
    2.5170    5.1620   52.0260 N   0  0  0  0  0  0  0  0  0  0  0  0
    0.9680    2.1980   47.5210 N   0  0  0  0  0  0  0  0  0  0  0  0
    6.3910    9.7780   53.2900 O   0  0  0  0  0  0  0  0  0  0  0  0
    2.9780    7.1690   51.1350 O   0  0  0  0  0  0  0  0  0  0  0  0
    0.6860    0.0300   48.1200 O   0  0  0  0  0  0  0  0  0  0  0  0
    5.2520   12.8660   53.8180 S   0  0  0  0  0  0  0  0  0  0  0  0
  1  6  1  0
  1  7  2  0
  2  4  2  0
  2  8  1  0
  3  5  1  0
  3  8  2  0
  4  9  1  0
  5  9  2  0
  6 10  2  0
  7 26  1  0
  8 21  1  0
  9 22  1  0
 10 11  1  0
 10 26  1  0
 11 20  1  0
 11 23  2  0
 12 18  1  0
 12 21  1  0
 12 24  2  0
 13 19  1  0
 13 22  1  0
 13 25  2  0
 14 16  1  0
 14 18  1  0
 15 17  1  0
 15 18  1  0
 16 20  1  0
 17 20  1  0
M  END
>  <washed_aromatic_smiles>  (626) 
CC(=O)Nc1ccc(cc1)NC(=O)C2CCN(CC2)C(=O)c3cccs3

>  <name>  (626) 
neg189500

$$$$
neg75898
     RDKit          3D

 31 34  0  0  0  0  0  0  0  0999 V2000
    0.9370   -0.8020   48.5460 C   0  0  0  0  0  0  0  0  0  0  0  0
    0.6600    0.4480   47.9790 C   0  0  0  0  0  0  0  0  0  0  0  0
    1.4450   -0.9110   49.8210 C   0  0  0  0  0  0  0  0  0  0  0  0
    0.9610    1.5850   48.6860 C   0  0  0  0  0  0  0  0  0  0  0  0
    4.3150   10.2980   53.7450 C   0  0  0  0  0  0  0  0  0  0  0  0
    4.3680    8.9280   55.7480 C   0  0  0  0  0  0  0  0  0  0  0  0
    3.6570    9.2740   53.0690 C   0  0  0  0  0  0  0  0  0  0  0  0
    3.7340    7.9060   55.0600 C   0  0  0  0  0  0  0  0  0  0  0  0
    1.7590    0.2260   50.5560 C   0  0  0  0  0  0  0  0  0  0  0  0
    1.5470    1.4790   49.9610 C   0  0  0  0  0  0  0  0  0  0  0  0
    4.6280   10.1360   55.1010 C   0  0  0  0  0  0  0  0  0  0  0  0
    3.3470    8.0870   53.7330 C   0  0  0  0  0  0  0  0  0  0  0  0
    2.6430    1.1680   52.4570 C   0  0  0  0  0  0  0  0  0  0  0  0
    2.4950    2.4810   51.7700 C   0  0  0  0  0  0  0  0  0  0  0  0
    5.0460   12.5140   55.7990 C   0  0  0  0  0  0  0  0  0  0  0  0
    2.5510    6.6610   51.7990 C   0  0  0  0  0  0  0  0  0  0  0  0
    4.4270    0.6160   56.4170 C   0  0  0  0  0  0  0  0  0  0  0  0
    4.0080   -0.6420   55.6500 C   0  0  0  0  0  0  0  0  0  0  0  0
    3.3690    1.6950   56.2800 C   0  0  0  0  0  0  0  0  0  0  0  0
    3.0920   -0.4480   54.4020 C   0  0  0  0  0  0  0  0  0  0  0  0
    2.6750    1.7840   54.9000 C   0  0  0  0  0  0  0  0  0  0  0  0
    5.5770   13.2980   56.9680 C   0  0  0  0  0  0  0  0  0  0  0  0
    1.9450    5.3190   51.5210 C   0  0  0  0  0  0  0  0  0  0  0  0
    2.2950    0.0910   51.8110 N   0  0  0  0  0  0  0  0  0  0  0  0
    1.9470    2.5890   50.5970 N   0  0  0  0  0  0  0  0  0  0  0  0
    3.1150    0.9190   53.8190 N   0  0  0  0  0  0  0  0  0  0  0  0
    5.1940   11.1550   55.9120 N   0  0  0  0  0  0  0  0  0  0  0  0
    2.6240    7.0190   53.1290 N   0  0  0  0  0  0  0  0  0  0  0  0
    4.5150   13.0400   54.8410 O   0  0  0  0  0  0  0  0  0  0  0  0
    3.0560    7.3070   50.9140 O   0  0  0  0  0  0  0  0  0  0  0  0
    2.9170    4.0410   52.3820 S   0  0  0  0  0  0  0  0  0  0  0  0
  1  2  2  0
  1  3  1  0
  2  4  1  0
  3  9  2  0
  4 10  2  0
  5  7  2  0
  5 11  1  0
  6  8  1  0
  6 11  2  0
  7 12  1  0
  8 12  2  0
  9 10  1  0
  9 24  1  0
 10 25  1  0
 11 27  1  0
 12 28  1  0
 13 14  1  0
 13 24  2  0
 13 26  1  0
 14 25  2  0
 14 31  1  0
 15 22  1  0
 15 27  1  0
 15 29  2  0
 16 23  1  0
 16 28  1  0
 16 30  2  0
 17 18  1  0
 17 19  1  0
 18 20  1  0
 19 21  1  0
 20 26  1  0
 21 26  1  0
 23 31  1  0
M  END
>  <washed_aromatic_smiles>  (627) 
CC(=O)Nc1ccc(cc1)NC(=O)CSc2c(nc3ccccc3n2)N4CCCCC4

>  <name>  (627) 
neg75898

$$$$
neg175115
     RDKit          3D

 25 27  0  0  0  0  0  0  0  0999 V2000
    1.0070    5.4160   51.5090 C   0  0  0  0  0  0  0  0  0  0  0  0
    5.0810   10.6590   54.6190 C   0  0  0  0  0  0  0  0  0  0  0  0
    3.6980    9.9440   56.4830 C   0  0  0  0  0  0  0  0  0  0  0  0
    5.5550   11.7190   55.3770 C   0  0  0  0  0  0  0  0  0  0  0  0
    4.2010   10.9880   57.2530 C   0  0  0  0  0  0  0  0  0  0  0  0
    0.5190    6.1630   52.5580 C   0  0  0  0  0  0  0  0  0  0  0  0
    2.7930    7.0010   51.2360 C   0  0  0  0  0  0  0  0  0  0  0  0
    3.7440    5.0400   49.1300 C   0  0  0  0  0  0  0  0  0  0  0  0
    1.7470    4.3550   48.8860 C   0  0  0  0  0  0  0  0  0  0  0  0
    2.4410    7.6430   52.4370 C   0  0  0  0  0  0  0  0  0  0  0  0
    2.1170    5.8650   50.8190 C   0  0  0  0  0  0  0  0  0  0  0  0
    4.1180    9.7860   55.1560 C   0  0  0  0  0  0  0  0  0  0  0  0
    5.1210   11.8810   56.6910 C   0  0  0  0  0  0  0  0  0  0  0  0
    1.2160    7.2800   53.0270 C   0  0  0  0  0  0  0  0  0  0  0  0
    3.3190    8.6570   53.0240 C   0  0  0  0  0  0  0  0  0  0  0  0
    6.0360   13.0120   58.7210 C   0  0  0  0  0  0  0  0  0  0  0  0
    6.7140   14.2720   59.1980 C   0  0  0  0  0  0  0  0  0  0  0  0
    3.7380    4.2180   48.1310 N   0  0  0  0  0  0  0  0  0  0  0  0
    2.4490    3.7730   47.9760 N   0  0  0  0  0  0  0  0  0  0  0  0
    2.5220    5.1360   49.6460 N   0  0  0  0  0  0  0  0  0  0  0  0
    3.4930    8.7320   54.4060 N   0  0  0  0  0  0  0  0  0  0  0  0
    5.6550   12.9900   57.4030 N   0  0  0  0  0  0  0  0  0  0  0  0
    3.9490    9.4310   52.3350 O   0  0  0  0  0  0  0  0  0  0  0  0
    5.8920   12.0430   59.4400 O   0  0  0  0  0  0  0  0  0  0  0  0
    0.5160    8.2240   54.3050 Cl  0  0  0  0  0  0  0  0  0  0  0  0
  1  6  2  0
  1 11  1  0
  2  4  2  0
  2 12  1  0
  3  5  1  0
  3 12  2  0
  4 13  1  0
  5 13  2  0
  6 14  1  0
  7 10  1  0
  7 11  2  0
  8 18  2  0
  8 20  1  0
  9 19  2  0
  9 20  1  0
 10 14  2  0
 10 15  1  0
 11 20  1  0
 12 21  1  0
 13 22  1  0
 14 25  1  0
 15 21  1  0
 15 23  2  0
 16 17  1  0
 16 22  1  0
 16 24  2  0
 18 19  1  0
M  END
>  <washed_aromatic_smiles>  (628) 
CC(=O)Nc1ccc(cc1)NC(=O)c2cc(ccc2Cl)n3cnnc3

>  <name>  (628) 
neg175115

$$$$
neg176160
     RDKit          3D

 27 29  0  0  0  0  0  0  0  0999 V2000
    5.9800   10.2200   59.3350 C   0  0  0  0  0  0  0  0  0  0  0  0
    5.7640   11.1550   52.9290 C   0  0  0  0  0  0  0  0  0  0  0  0
    4.9610   11.0340   58.8720 C   0  0  0  0  0  0  0  0  0  0  0  0
    6.0860    8.8590   59.0090 C   0  0  0  0  0  0  0  0  0  0  0  0
    5.6260   11.6660   54.2070 C   0  0  0  0  0  0  0  0  0  0  0  0
    5.0110   10.0560   52.5470 C   0  0  0  0  0  0  0  0  0  0  0  0
    3.9860   10.4620   58.0800 C   0  0  0  0  0  0  0  0  0  0  0  0
    5.1410    8.3020   58.1500 C   0  0  0  0  0  0  0  0  0  0  0  0
    4.7090   11.0920   55.0730 C   0  0  0  0  0  0  0  0  0  0  0  0
    1.5210    6.0600   51.7900 C   0  0  0  0  0  0  0  0  0  0  0  0
    3.2770    6.2210   50.1290 C   0  0  0  0  0  0  0  0  0  0  0  0
    1.1550    4.8450   51.2420 C   0  0  0  0  0  0  0  0  0  0  0  0
    2.9380    4.9790   49.6140 C   0  0  0  0  0  0  0  0  0  0  0  0
    4.1590    9.3920   53.4410 C   0  0  0  0  0  0  0  0  0  0  0  0
    4.1110    9.1220   57.6710 C   0  0  0  0  0  0  0  0  0  0  0  0
    3.9590    9.9710   54.6980 C   0  0  0  0  0  0  0  0  0  0  0  0
    2.6030    6.7380   51.2450 C   0  0  0  0  0  0  0  0  0  0  0  0
    1.8830    4.2800   50.1940 C   0  0  0  0  0  0  0  0  0  0  0  0
    3.4990    8.1250   53.0840 C   0  0  0  0  0  0  0  0  0  0  0  0
    1.3240    2.5850   48.4610 C   0  0  0  0  0  0  0  0  0  0  0  0
    0.6790    1.2350   48.2560 C   0  0  0  0  0  0  0  0  0  0  0  0
    3.1350    8.5690   56.6990 C   0  0  0  0  0  0  0  0  0  0  0  0
    2.8070    9.4890   55.5630 C   0  0  0  0  0  0  0  0  0  0  0  0
    2.9910    7.9780   51.8140 N   0  0  0  0  0  0  0  0  0  0  0  0
    1.5200    2.9760   49.7610 N   0  0  0  0  0  0  0  0  0  0  0  0
    3.4230    7.1630   53.8460 O   0  0  0  0  0  0  0  0  0  0  0  0
    1.6330    3.3060   47.5350 O   0  0  0  0  0  0  0  0  0  0  0  0
  1  3  2  0
  1  4  1  0
  2  5  2  0
  2  6  1  0
  3  7  1  0
  4  8  2  0
  5  9  1  0
  6 14  2  0
  7 15  2  0
  8 15  1  0
  9 16  2  0
 10 12  2  0
 10 17  1  0
 11 13  1  0
 11 17  2  0
 12 18  1  0
 13 18  2  0
 14 16  1  0
 14 19  1  0
 15 22  1  0
 16 23  1  0
 17 24  1  0
 18 25  1  0
 19 24  1  0
 19 26  2  0
 20 21  1  0
 20 25  1  0
 20 27  2  0
 22 23  1  0
M  END
>  <washed_aromatic_smiles>  (629) 
CC(=O)Nc1ccc(cc1)NC(=O)c2ccccc2CCc3ccccc3

>  <name>  (629) 
neg176160

$$$$
neg219435
     RDKit          3D

 31 33  0  0  0  0  0  0  0  0999 V2000
    2.5680    3.4340   47.7550 C   0  0  0  0  0  0  0  0  0  0  0  0
    2.8390   -1.4670   52.0680 C   0  0  0  0  0  0  0  0  0  0  0  0
    1.5130    2.6100   47.3960 C   0  0  0  0  0  0  0  0  0  0  0  0
    2.1820   -0.7990   53.0700 C   0  0  0  0  0  0  0  0  0  0  0  0
    2.6830    3.8690   49.0510 C   0  0  0  0  0  0  0  0  0  0  0  0
    2.9640    7.8570   51.9550 C   0  0  0  0  0  0  0  0  0  0  0  0
    1.1510    6.8470   53.1570 C   0  0  0  0  0  0  0  0  0  0  0  0
    3.1680    8.7600   52.9890 C   0  0  0  0  0  0  0  0  0  0  0  0
    1.2970    7.7920   54.1610 C   0  0  0  0  0  0  0  0  0  0  0  0
    2.5250   -1.3120   50.7110 C   0  0  0  0  0  0  0  0  0  0  0  0
    0.7300    2.0300   48.3660 C   0  0  0  0  0  0  0  0  0  0  0  0
    1.1660    0.0300   52.6970 C   0  0  0  0  0  0  0  0  0  0  0  0
    1.7210    3.5030   49.9940 C   0  0  0  0  0  0  0  0  0  0  0  0
    2.0890    6.7880   52.1120 C   0  0  0  0  0  0  0  0  0  0  0  0
    2.3980    8.6440   54.1470 C   0  0  0  0  0  0  0  0  0  0  0  0
    1.3780   -0.6860   50.3630 C   0  0  0  0  0  0  0  0  0  0  0  0
    0.9020    2.3260   49.7110 C   0  0  0  0  0  0  0  0  0  0  0  0
    0.7970    0.0690   51.3570 C   0  0  0  0  0  0  0  0  0  0  0  0
    1.4730    4.5670   51.0030 C   0  0  0  0  0  0  0  0  0  0  0  0
    3.9350    9.7300   55.7950 C   0  0  0  0  0  0  0  0  0  0  0  0
    3.9560   10.4920   57.0960 C   0  0  0  0  0  0  0  0  0  0  0  0
    2.2960    5.6710   51.1980 N   0  0  0  0  0  0  0  0  0  0  0  0
    2.6910    9.3510   55.3440 N   0  0  0  0  0  0  0  0  0  0  0  0
    0.8150   -0.9260   48.9370 N   0  0  0  0  0  0  0  0  0  0  0  0
   -0.3580   -0.9030   48.6520 O   0  0  0  0  0  0  0  0  0  0  0  0
    0.4400    4.6600   51.5830 O   0  0  0  0  0  0  0  0  0  0  0  0
    4.9550    9.4430   55.1950 O   0  0  0  0  0  0  0  0  0  0  0  0
    1.4860   -1.2360   47.9810 O   0  0  0  0  0  0  0  0  0  0  0  0
   -0.5720    2.0100   51.9930 O   0  0  0  0  0  0  0  0  0  0  0  0
   -1.3400    0.6690   50.2560 O   0  0  0  0  0  0  0  0  0  0  0  0
   -0.2420    1.2900   50.8670 S   0  0  0  0  0  0  0  0  0  0  0  0
  1  3  2  0
  1  5  1  0
  2  4  2  0
  2 10  1  0
  3 11  1  0
  4 12  1  0
  5 13  2  0
  6  8  2  0
  6 14  1  0
  7  9  1  0
  7 14  2  0
  8 15  1  0
  9 15  2  0
 10 16  2  0
 11 17  2  0
 12 18  2  0
 13 17  1  0
 13 19  1  0
 14 22  1  0
 15 23  1  0
 16 18  1  0
 16 24  1  0
 17 31  1  0
 18 31  1  0
 19 22  1  0
 19 26  2  0
 20 21  1  0
 20 23  1  0
 20 27  2  0
 24 25  1  0
 24 28  2  0
 29 31  2  0
 30 31  2  0
M  CHG  2  24   1  25  -1
M  END
>  <washed_aromatic_smiles>  (630) 
CC(=O)Nc1ccc(cc1)NC(=O)c2ccccc2S(=O)(=O)c3ccccc3[N+](=O)[O-]

>  <name>  (630) 
neg219435

$$$$
neg305500
     RDKit          3D

 25 26  0  0  0  0  0  0  0  0999 V2000
    1.6210    4.1170   50.0190 C   0  0  0  0  0  0  0  0  0  0  0  0
    0.8930    2.9310   48.0180 C   0  0  0  0  0  0  0  0  0  0  0  0
    3.6710   -0.5680   55.6160 C   0  0  0  0  0  0  0  0  0  0  0  0
    3.0180    1.7250   55.3530 C   0  0  0  0  0  0  0  0  0  0  0  0
    1.4250    2.9890   50.7320 C   0  0  0  0  0  0  0  0  0  0  0  0
    0.5370    1.8520   48.8030 C   0  0  0  0  0  0  0  0  0  0  0  0
    3.2820   -0.8320   54.3000 C   0  0  0  0  0  0  0  0  0  0  0  0
    2.8040    1.4880   54.0020 C   0  0  0  0  0  0  0  0  0  0  0  0
    1.4220    4.0450   48.6590 C   0  0  0  0  0  0  0  0  0  0  0  0
    3.5560    0.7160   56.1100 C   0  0  0  0  0  0  0  0  0  0  0  0
    0.8040    1.8880   50.1750 C   0  0  0  0  0  0  0  0  0  0  0  0
    2.9580    0.2180   53.4420 C   0  0  0  0  0  0  0  0  0  0  0  0
    3.3510    5.1160   48.2340 C   0  0  0  0  0  0  0  0  0  0  0  0
    3.8310    6.3040   48.9990 C   0  0  0  0  0  0  0  0  0  0  0  0
    1.4860   -1.0800   49.7960 C   0  0  0  0  0  0  0  0  0  0  0  0
    2.0130    5.0780   48.0280 N   0  0  0  0  0  0  0  0  0  0  0  0
    1.5010   -0.4430   51.0770 N   0  0  0  0  0  0  0  0  0  0  0  0
    4.0310    4.1410   47.9640 O   0  0  0  0  0  0  0  0  0  0  0  0
   -0.9540    0.1410   50.7460 O   0  0  0  0  0  0  0  0  0  0  0  0
    0.2450    1.0750   52.5940 O   0  0  0  0  0  0  0  0  0  0  0  0
    3.9200   -0.9710   51.2960 O   0  0  0  0  0  0  0  0  0  0  0  0
    3.3960    1.2960   51.1070 O   0  0  0  0  0  0  0  0  0  0  0  0
    3.9990    1.0070   57.3630 F   0  0  0  0  0  0  0  0  0  0  0  0
    0.2700    0.6220   51.2620 S   0  0  0  0  0  0  0  0  0  0  0  0
    3.0220    0.0410   51.6300 S   0  0  0  0  0  0  0  0  0  0  0  0
  1  5  2  0
  1  9  1  0
  2  6  1  0
  2  9  2  0
  3  7  2  0
  3 10  1  0
  4  8  1  0
  4 10  2  0
  5 11  1  0
  6 11  2  0
  7 12  1  0
  8 12  2  0
  9 16  1  0
 10 23  1  0
 11 24  1  0
 12 25  1  0
 13 14  1  0
 13 16  1  0
 13 18  2  0
 15 17  1  0
 17 24  1  0
 17 25  1  0
 19 24  2  0
 20 24  2  0
 21 25  2  0
 22 25  2  0
M  END
>  <washed_aromatic_smiles>  (631) 
CC(=O)Nc1ccc(cc1)S(=O)(=O)N(C)S(=O)(=O)c2ccc(cc2)F

>  <name>  (631) 
neg305500

$$$$
neg283736
     RDKit          3D

 33 35  0  0  0  0  0  0  0  0999 V2000
   -0.3490    0.7100   51.3350 C   0  0  0  0  0  0  0  0  0  0  0  0
   -0.2410    0.5330   48.9270 C   0  0  0  0  0  0  0  0  0  0  0  0
    2.6400    9.0780   56.6060 C   0  0  0  0  0  0  0  0  0  0  0  0
    4.9310    8.6300   55.9510 C   0  0  0  0  0  0  0  0  0  0  0  0
    0.8030    1.4460   51.2990 C   0  0  0  0  0  0  0  0  0  0  0  0
    0.8000    1.4130   48.8930 C   0  0  0  0  0  0  0  0  0  0  0  0
    2.2170    8.7550   55.3240 C   0  0  0  0  0  0  0  0  0  0  0  0
    4.4970    8.3160   54.6730 C   0  0  0  0  0  0  0  0  0  0  0  0
   -0.9460    0.3700   50.1350 C   0  0  0  0  0  0  0  0  0  0  0  0
    4.0060    9.1150   56.8710 C   0  0  0  0  0  0  0  0  0  0  0  0
    1.2860    1.9080   50.0860 C   0  0  0  0  0  0  0  0  0  0  0  0
    3.1510    8.4650   54.3300 C   0  0  0  0  0  0  0  0  0  0  0  0
   -2.9820   -0.6620   49.2370 C   0  0  0  0  0  0  0  0  0  0  0  0
    5.0930   11.0380   57.8510 C   0  0  0  0  0  0  0  0  0  0  0  0
    0.8300    5.3340   51.8180 C   0  0  0  0  0  0  0  0  0  0  0  0
    2.1970    4.5610   51.9180 C   0  0  0  0  0  0  0  0  0  0  0  0
    0.9960    6.7810   52.1960 C   0  0  0  0  0  0  0  0  0  0  0  0
    2.6780    5.4960   49.7800 C   0  0  0  0  0  0  0  0  0  0  0  0
    3.0370    6.7620   50.6250 C   0  0  0  0  0  0  0  0  0  0  0  0
   -4.0000   -1.7510   49.4920 C   0  0  0  0  0  0  0  0  0  0  0  0
    5.5750   11.7170   59.1000 C   0  0  0  0  0  0  0  0  0  0  0  0
    2.6450    4.3010   50.6120 N   0  0  0  0  0  0  0  0  0  0  0  0
    2.3140    7.2950   51.8960 N   0  0  0  0  0  0  0  0  0  0  0  0
   -2.2860   -0.0940   50.2330 N   0  0  0  0  0  0  0  0  0  0  0  0
    4.4740    9.8150   57.9970 N   0  0  0  0  0  0  0  0  0  0  0  0
   -2.6140   -0.3610   48.1620 O   0  0  0  0  0  0  0  0  0  0  0  0
    5.2460   11.5360   56.7510 O   0  0  0  0  0  0  0  0  0  0  0  0
    3.5450    1.9990   51.0200 O   0  0  0  0  0  0  0  0  0  0  0  0
    3.2030    2.8010   48.7050 O   0  0  0  0  0  0  0  0  0  0  0  0
    1.5920    9.5900   52.6130 O   0  0  0  0  0  0  0  0  0  0  0  0
    3.9140    9.2510   52.0420 O   0  0  0  0  0  0  0  0  0  0  0  0
    2.7850    2.7510   50.0690 S   0  0  0  0  0  0  0  0  0  0  0  0
    2.7320    8.7380   52.6210 S   0  0  0  0  0  0  0  0  0  0  0  0
  1  5  2  0
  1  9  1  0
  2  6  1  0
  2  9  2  0
  3  7  2  0
  3 10  1  0
  4  8  1  0
  4 10  2  0
  5 11  1  0
  6 11  2  0
  7 12  1  0
  8 12  2  0
  9 24  1  0
 10 25  1  0
 11 32  1  0
 12 33  1  0
 13 20  1  0
 13 24  1  0
 13 26  2  0
 14 21  1  0
 14 25  1  0
 14 27  2  0
 15 16  1  0
 15 17  1  0
 16 22  1  0
 17 23  1  0
 18 19  1  0
 18 22  1  0
 19 23  1  0
 22 32  1  0
 23 33  1  0
 28 32  2  0
 29 32  2  0
 30 33  2  0
 31 33  2  0
M  END
>  <washed_aromatic_smiles>  (632) 
CC(=O)Nc1ccc(cc1)S(=O)(=O)N2CCCN(CC2)S(=O)(=O)c3ccc(cc3)NC(=O)C

>  <name>  (632) 
neg283736

$$$$
neg319582
     RDKit          3D

 28 30  0  0  0  0  0  0  0  0999 V2000
    4.6440    0.0990   56.7230 C   0  0  0  0  0  0  0  0  0  0  0  0
    3.3660    2.0910   56.2670 C   0  0  0  0  0  0  0  0  0  0  0  0
    4.0430   -0.5020   55.6230 C   0  0  0  0  0  0  0  0  0  0  0  0
    2.7590    1.4550   55.1990 C   0  0  0  0  0  0  0  0  0  0  0  0
    4.2970    1.4060   57.0430 C   0  0  0  0  0  0  0  0  0  0  0  0
    3.0760    0.1560   54.8590 C   0  0  0  0  0  0  0  0  0  0  0  0
    4.9080    1.6200   59.4190 C   0  0  0  0  0  0  0  0  0  0  0  0
    2.1240    4.5940   49.3500 C   0  0  0  0  0  0  0  0  0  0  0  0
    1.5160    7.4400   53.2670 C   0  0  0  0  0  0  0  0  0  0  0  0
    2.9590    6.9230   53.2440 C   0  0  0  0  0  0  0  0  0  0  0  0
    0.7870    6.6610   52.1730 C   0  0  0  0  0  0  0  0  0  0  0  0
    2.9910    5.7980   52.2010 C   0  0  0  0  0  0  0  0  0  0  0  0
    2.7680    2.4440   50.9750 C   0  0  0  0  0  0  0  0  0  0  0  0
    0.9790    1.1800   50.0630 C   0  0  0  0  0  0  0  0  0  0  0  0
    3.2610    1.2570   51.8030 C   0  0  0  0  0  0  0  0  0  0  0  0
    1.3320    0.0570   51.0510 C   0  0  0  0  0  0  0  0  0  0  0  0
    1.8940    6.1910   51.2290 C   0  0  0  0  0  0  0  0  0  0  0  0
    5.5650    2.5180   60.4380 C   0  0  0  0  0  0  0  0  0  0  0  0
    1.7160    3.1950   48.8490 C   0  0  0  0  0  0  0  0  0  0  0  0
    2.1230    2.0370   49.7200 N   0  0  0  0  0  0  0  0  0  0  0  0
    2.0990    0.4990   52.2370 N   0  0  0  0  0  0  0  0  0  0  0  0
    4.9140    2.0710   58.1230 N   0  0  0  0  0  0  0  0  0  0  0  0
    1.4550    5.0680   50.4130 N   0  0  0  0  0  0  0  0  0  0  0  0
    4.3580    0.5760   59.7180 O   0  0  0  0  0  0  0  0  0  0  0  0
    3.1140    5.1460   48.8690 O   0  0  0  0  0  0  0  0  0  0  0  0
    2.9720   -1.7000   53.0120 O   0  0  0  0  0  0  0  0  0  0  0  0
    0.9060   -0.8920   53.9210 O   0  0  0  0  0  0  0  0  0  0  0  0
    2.2140   -0.5990   53.4720 S   0  0  0  0  0  0  0  0  0  0  0  0
  1  3  2  0
  1  5  1  0
  2  4  1  0
  2  5  2  0
  3  6  1  0
  4  6  2  0
  5 22  1  0
  6 28  1  0
  7 18  1  0
  7 22  1  0
  7 24  2  0
  8 19  1  0
  8 23  1  0
  8 25  2  0
  9 10  1  0
  9 11  1  0
 10 12  1  0
 11 17  1  0
 12 17  1  0
 13 15  1  0
 13 20  1  0
 14 16  1  0
 14 20  1  0
 15 21  1  0
 16 21  1  0
 17 23  1  0
 19 20  1  0
 21 28  1  0
 26 28  2  0
 27 28  2  0
M  END
>  <washed_aromatic_smiles>  (633) 
CC(=O)Nc1ccc(cc1)S(=O)(=O)N2CCN(CC2)CC(=O)NC3CCCC3

>  <name>  (633) 
neg319582

$$$$
neg204466
     RDKit          3D

 25 26  0  0  0  0  0  0  0  0999 V2000
    4.9460   10.2770   57.8950 C   0  0  0  0  0  0  0  0  0  0  0  0
    4.9620   11.4450   57.1390 C   0  0  0  0  0  0  0  0  0  0  0  0
    4.9550    9.0390   57.2590 C   0  0  0  0  0  0  0  0  0  0  0  0
    4.9820   11.3750   55.7490 C   0  0  0  0  0  0  0  0  0  0  0  0
    4.9760    8.9710   55.8690 C   0  0  0  0  0  0  0  0  0  0  0  0
    2.2690    2.4230   49.3160 C   0  0  0  0  0  0  0  0  0  0  0  0
    1.1710    4.3470   48.3560 C   0  0  0  0  0  0  0  0  0  0  0  0
    2.5860    3.1840   50.4360 C   0  0  0  0  0  0  0  0  0  0  0  0
    1.2980    4.9920   49.5630 C   0  0  0  0  0  0  0  0  0  0  0  0
    4.9890   10.1380   55.1060 C   0  0  0  0  0  0  0  0  0  0  0  0
    1.5460    3.0180   48.2800 C   0  0  0  0  0  0  0  0  0  0  0  0
    2.0980    4.4880   50.5530 C   0  0  0  0  0  0  0  0  0  0  0  0
    0.8190    1.0160   47.0230 C   0  0  0  0  0  0  0  0  0  0  0  0
    2.7190    9.2380   52.8220 C   0  0  0  0  0  0  0  0  0  0  0  0
    0.9530    0.4890   45.6210 C   0  0  0  0  0  0  0  0  0  0  0  0
    4.9780   10.0710   53.5930 C   0  0  0  0  0  0  0  0  0  0  0  0
    3.0690    7.7790   52.9040 C   0  0  0  0  0  0  0  0  0  0  0  0
    1.1320    2.3370   47.1320 N   0  0  0  0  0  0  0  0  0  0  0  0
    2.8940    6.9830   51.6640 N   0  0  0  0  0  0  0  0  0  0  0  0
    0.5500    0.3300   47.9910 O   0  0  0  0  0  0  0  0  0  0  0  0
    1.5610    9.5900   52.6260 O   0  0  0  0  0  0  0  0  0  0  0  0
    1.0190    5.6850   52.5470 O   0  0  0  0  0  0  0  0  0  0  0  0
    3.2930    4.8340   52.7760 O   0  0  0  0  0  0  0  0  0  0  0  0
    3.6370   10.1960   53.0730 O   0  0  0  0  0  0  0  0  0  0  0  0
    2.3120    5.4900   51.9930 S   0  0  0  0  0  0  0  0  0  0  0  0
  1  2  2  0
  1  3  1  0
  2  4  1  0
  3  5  2  0
  4 10  2  0
  5 10  1  0
  6  8  2  0
  6 11  1  0
  7  9  1  0
  7 11  2  0
  8 12  1  0
  9 12  2  0
 10 16  1  0
 11 18  1  0
 12 25  1  0
 13 15  1  0
 13 18  1  0
 13 20  2  0
 14 17  1  0
 14 21  2  0
 14 24  1  0
 16 24  1  0
 17 19  1  0
 19 25  1  0
 22 25  2  0
 23 25  2  0
M  END
>  <washed_aromatic_smiles>  (634) 
CC(=O)Nc1ccc(cc1)S(=O)(=O)NCC(=O)OCc2ccccc2

>  <name>  (634) 
neg204466

$$$$
neg238444
     RDKit          3D

 29 30  0  0  0  0  0  0  0  0999 V2000
    1.0990    4.5190   51.1890 C   0  0  0  0  0  0  0  0  0  0  0  0
    2.9730    4.3010   49.7430 C   0  0  0  0  0  0  0  0  0  0  0  0
    5.5830   12.0110   59.1190 C   0  0  0  0  0  0  0  0  0  0  0  0
    5.5480   12.8300   56.8510 C   0  0  0  0  0  0  0  0  0  0  0  0
    1.4410    5.8170   51.4970 C   0  0  0  0  0  0  0  0  0  0  0  0
    3.3510    5.6080   50.0540 C   0  0  0  0  0  0  0  0  0  0  0  0
    5.0410   10.8120   58.6920 C   0  0  0  0  0  0  0  0  0  0  0  0
    4.9670   11.6330   56.4400 C   0  0  0  0  0  0  0  0  0  0  0  0
    1.8790    3.6950   50.3750 C   0  0  0  0  0  0  0  0  0  0  0  0
    5.9030   13.0020   58.1930 C   0  0  0  0  0  0  0  0  0  0  0  0
    2.6080    6.3400   50.9780 C   0  0  0  0  0  0  0  0  0  0  0  0
    4.7370   10.6030   57.3570 C   0  0  0  0  0  0  0  0  0  0  0  0
    7.1580   14.4930   59.8070 C   0  0  0  0  0  0  0  0  0  0  0  0
    3.7580    8.8920   53.3380 C   0  0  0  0  0  0  0  0  0  0  0  0
    8.4560   15.2630   59.8700 C   0  0  0  0  0  0  0  0  0  0  0  0
    1.0330    1.9500   48.7320 C   0  0  0  0  0  0  0  0  0  0  0  0
    0.6830    1.4630   51.2320 C   0  0  0  0  0  0  0  0  0  0  0  0
    2.8520    1.3660   50.3080 C   0  0  0  0  0  0  0  0  0  0  0  0
    2.6010    8.3120   52.5670 C   0  0  0  0  0  0  0  0  0  0  0  0
    1.5620    2.1780   50.1630 C   0  0  0  0  0  0  0  0  0  0  0  0
    6.6990   14.1360   58.5500 N   0  0  0  0  0  0  0  0  0  0  0  0
    4.0000    8.2760   54.4990 N   0  0  0  0  0  0  0  0  0  0  0  0
    4.8810    8.7420   55.4940 N   0  0  0  0  0  0  0  0  0  0  0  0
    6.5730   14.1820   60.8260 O   0  0  0  0  0  0  0  0  0  0  0  0
    4.4100    9.9010   52.9980 O   0  0  0  0  0  0  0  0  0  0  0  0
    2.7020    9.1290   56.6680 O   0  0  0  0  0  0  0  0  0  0  0  0
    4.5550    8.0390   57.8490 O   0  0  0  0  0  0  0  0  0  0  0  0
    3.0290    7.5810   51.3780 O   0  0  0  0  0  0  0  0  0  0  0  0
    4.1230    9.0030   56.8700 S   0  0  2  0  0  0  0  0  0  0  0  0
  1  5  2  0
  1  9  1  0
  2  6  1  0
  2  9  2  0
  3  7  2  0
  3 10  1  0
  4  8  1  0
  4 10  2  0
  5 11  1  0
  6 11  2  0
  7 12  1  0
  8 12  2  0
  9 20  1  0
 10 21  1  0
 11 28  1  0
 12 29  1  0
 13 15  1  0
 13 21  1  0
 13 24  2  0
 14 19  1  0
 14 22  1  0
 14 25  2  0
 16 20  1  0
 17 20  1  0
 18 20  1  0
 19 28  1  0
 22 23  1  0
 23 29  2  0
 26 29  2  0
 29 27  1  1
M  CHG  1  27  -1
M  END
>  <washed_aromatic_smiles>  (635) 
CC(=O)Nc1ccc(cc1)S(=O)(=O)NNC(=O)COc2ccc(cc2)C(C)(C)C

>  <name>  (635) 
neg238444

$$$$
neg315902
     RDKit          3D

 27 29  0  0  0  0  0  0  0  0999 V2000
    0.9450    4.7160   49.4770 C   0  0  0  0  0  0  0  0  0  0  0  0
    0.9880    3.5050   48.8050 C   0  0  0  0  0  0  0  0  0  0  0  0
    2.7490   -0.5640   53.4380 C   0  0  0  0  0  0  0  0  0  0  0  0
    2.7620    1.8290   53.2010 C   0  0  0  0  0  0  0  0  0  0  0  0
    2.2600   -0.6720   52.1310 C   0  0  0  0  0  0  0  0  0  0  0  0
    2.2750    1.7140   51.9170 C   0  0  0  0  0  0  0  0  0  0  0  0
    3.3090    3.6520   48.6800 C   0  0  0  0  0  0  0  0  0  0  0  0
    2.0850    5.2010   50.0900 C   0  0  0  0  0  0  0  0  0  0  0  0
    2.9660    0.7040   53.9850 C   0  0  0  0  0  0  0  0  0  0  0  0
    2.1790    2.8050   48.7410 C   0  0  0  0  0  0  0  0  0  0  0  0
    3.2730    4.8060   49.4540 C   0  0  0  0  0  0  0  0  0  0  0  0
    1.9730    0.4740   51.3770 C   0  0  0  0  0  0  0  0  0  0  0  0
    4.1350    0.2320   56.1840 C   0  0  0  0  0  0  0  0  0  0  0  0
    0.6080    6.3600   51.8270 C   0  0  0  0  0  0  0  0  0  0  0  0
    3.0340    6.7550   51.7540 C   0  0  0  0  0  0  0  0  0  0  0  0
    0.5840    7.3040   53.0480 C   0  0  0  0  0  0  0  0  0  0  0  0
    2.8660    7.5730   53.0410 C   0  0  0  0  0  0  0  0  0  0  0  0
    4.6230    0.9490   57.4190 C   0  0  0  0  0  0  0  0  0  0  0  0
    1.9380    5.9140   51.3660 N   0  0  0  0  0  0  0  0  0  0  0  0
    3.3740    0.9830   55.3220 N   0  0  0  0  0  0  0  0  0  0  0  0
    2.2020    1.4780   48.9180 N   0  0  0  0  0  0  0  0  0  0  0  0
    4.4110   -0.9260   55.9580 O   0  0  0  0  0  0  0  0  0  0  0  0
   -0.0920    1.0410   49.8970 O   0  0  0  0  0  0  0  0  0  0  0  0
    1.2770   -0.8540   49.2290 O   0  0  0  0  0  0  0  0  0  0  0  0
    1.6300    8.2520   53.0530 O   0  0  0  0  0  0  0  0  0  0  0  0
    4.3770    5.5540   49.5360 F   0  0  0  0  0  0  0  0  0  0  0  0
    1.2180    0.4810   49.7540 S   0  0  2  0  0  0  0  0  0  0  0  0
  1  2  2  0
  1  8  1  0
  2 10  1  0
  3  5  2  0
  3  9  1  0
  4  6  1  0
  4  9  2  0
  5 12  1  0
  6 12  2  0
  7 10  2  0
  7 11  1  0
  8 11  2  0
  8 19  1  0
  9 20  1  0
 10 21  1  0
 11 26  1  0
 12 27  1  0
 13 18  1  0
 13 20  1  0
 13 22  2  0
 14 16  1  0
 14 19  1  0
 15 17  1  0
 15 19  1  0
 16 25  1  0
 17 25  1  0
 21 27  2  0
 23 27  2  0
 27 24  1  6
M  CHG  1  24  -1
M  END
>  <washed_aromatic_smiles>  (636) 
CC(=O)Nc1ccc(cc1)S(=O)(=O)Nc2ccc(c(c2)F)N3CCOCC3

>  <name>  (636) 
neg315902

$$$$
neg263130
     RDKit          3D

 28 30  0  0  0  0  0  0  0  0999 V2000
    0.9720    1.8840   49.5450 C   0  0  0  0  0  0  0  0  0  0  0  0
    1.2090    3.8050   48.0800 C   0  0  0  0  0  0  0  0  0  0  0  0
    1.8040    8.3740   52.6900 C   0  0  0  0  0  0  0  0  0  0  0  0
    3.4520    6.8710   53.5540 C   0  0  0  0  0  0  0  0  0  0  0  0
    1.5220    2.6260   50.5750 C   0  0  0  0  0  0  0  0  0  0  0  0
    1.7520    4.5290   49.1100 C   0  0  0  0  0  0  0  0  0  0  0  0
    2.6500    9.4330   52.9890 C   0  0  0  0  0  0  0  0  0  0  0  0
    4.2540    7.9370   53.8880 C   0  0  0  0  0  0  0  0  0  0  0  0
    0.8140    2.4940   48.2990 C   0  0  0  0  0  0  0  0  0  0  0  0
    2.2540    7.0390   52.8120 C   0  0  0  0  0  0  0  0  0  0  0  0
    3.9000    9.2450   53.5910 C   0  0  0  0  0  0  0  0  0  0  0  0
    1.8790    3.9600   50.3630 C   0  0  0  0  0  0  0  0  0  0  0  0
    0.7070    0.5950   46.8490 C   0  0  0  0  0  0  0  0  0  0  0  0
    4.0390    9.3240   57.1050 C   0  0  0  0  0  0  0  0  0  0  0  0
    3.4710   10.7320   57.2000 C   0  0  0  0  0  0  0  0  0  0  0  0
    5.3930    9.5420   56.4500 C   0  0  0  0  0  0  0  0  0  0  0  0
    4.3580   11.6030   56.3090 C   0  0  0  0  0  0  0  0  0  0  0  0
    0.9920    0.4470   45.3980 C   0  0  0  0  0  0  0  0  0  0  0  0
    5.2230   10.6990   55.5700 N   0  0  0  0  0  0  0  0  0  0  0  0
    0.3000    1.8380   47.1870 N   0  0  0  0  0  0  0  0  0  0  0  0
    1.6720    6.0410   52.1250 N   0  0  0  0  0  0  0  0  0  0  0  0
    0.9640   -0.2680   47.6650 O   0  0  0  0  0  0  0  0  0  0  0  0
    6.3760   10.0360   53.4240 O   0  0  0  0  0  0  0  0  0  0  0  0
    4.6660   11.7530   53.3230 O   0  0  0  0  0  0  0  0  0  0  0  0
    3.0350    3.9870   52.6210 O   0  0  0  0  0  0  0  0  0  0  0  0
    3.7790    5.5550   50.8980 O   0  0  0  0  0  0  0  0  0  0  0  0
    5.1210   10.5250   53.8990 S   0  0  0  0  0  0  0  0  0  0  0  0
    2.7010    4.9100   51.5830 S   0  0  1  0  0  0  0  0  0  0  0  0
  1  5  2  0
  1  9  1  0
  2  6  1  0
  2  9  2  0
  3  7  2  0
  3 10  1  0
  4  8  1  0
  4 10  2  0
  5 12  1  0
  6 12  2  0
  7 11  1  0
  8 11  2  0
  9 20  1  0
 10 21  1  0
 11 27  1  0
 12 28  1  0
 13 18  1  0
 13 20  1  0
 13 22  2  0
 14 15  1  0
 14 16  1  0
 15 17  1  0
 16 19  1  0
 17 19  1  0
 19 27  1  0
 21 28  2  0
 23 27  2  0
 24 27  2  0
 25 28  2  0
 28 26  1  6
M  CHG  1  26  -1
M  END
>  <washed_aromatic_smiles>  (637) 
CC(=O)Nc1ccc(cc1)S(=O)(=O)Nc2ccc(cc2)S(=O)(=O)N3CCCC3

>  <name>  (637) 
neg263130

$$$$
neg287082
     RDKit          3D

 30 32  0  0  0  0  0  0  0  0999 V2000
    2.8540    9.2920   57.0150 C   0  0  0  0  0  0  0  0  0  0  0  0
    5.1120    9.1750   56.1850 C   0  0  0  0  0  0  0  0  0  0  0  0
    1.3780    5.4030   51.8170 C   0  0  0  0  0  0  0  0  0  0  0  0
    2.9880    6.7050   50.6070 C   0  0  0  0  0  0  0  0  0  0  0  0
    2.3730    8.9880   55.7550 C   0  0  0  0  0  0  0  0  0  0  0  0
    4.6280    8.8700   54.9240 C   0  0  0  0  0  0  0  0  0  0  0  0
    1.4550    4.4310   50.8620 C   0  0  0  0  0  0  0  0  0  0  0  0
    3.0360    5.7370   49.6290 C   0  0  0  0  0  0  0  0  0  0  0  0
    4.2140    9.5320   57.1830 C   0  0  0  0  0  0  0  0  0  0  0  0
    2.2360    6.5040   51.7930 C   0  0  0  0  0  0  0  0  0  0  0  0
    2.2680    4.5840   49.7490 C   0  0  0  0  0  0  0  0  0  0  0  0
    3.2520    8.8590   54.6890 C   0  0  0  0  0  0  0  0  0  0  0  0
    5.2570   11.5420   58.0630 C   0  0  0  0  0  0  0  0  0  0  0  0
    1.2430    0.1220   51.9970 C   0  0  0  0  0  0  0  0  0  0  0  0
    0.0580    0.4060   51.0730 C   0  0  0  0  0  0  0  0  0  0  0  0
    2.3820    1.1150   51.8300 C   0  0  0  0  0  0  0  0  0  0  0  0
    0.3660   -0.0670   49.6450 C   0  0  0  0  0  0  0  0  0  0  0  0
    2.8700    1.4490   50.4190 C   0  0  0  0  0  0  0  0  0  0  0  0
    1.0290    0.9650   48.7410 C   0  0  0  0  0  0  0  0  0  0  0  0
    5.7370   12.3390   59.2470 C   0  0  0  0  0  0  0  0  0  0  0  0
    1.9370    1.9350   49.3640 N   0  0  0  0  0  0  0  0  0  0  0  0
    4.6790   10.3000   58.2770 N   0  0  0  0  0  0  0  0  0  0  0  0
    2.2560    7.2360   52.8800 N   0  0  0  0  0  0  0  0  0  0  0  0
    5.3890   11.9770   56.9330 O   0  0  0  0  0  0  0  0  0  0  0  0
    1.2160    3.6170   47.6080 O   0  0  0  0  0  0  0  0  0  0  0  0
    3.5880    3.3040   47.9640 O   0  0  0  0  0  0  0  0  0  0  0  0
    3.7290    9.1420   52.1900 O   0  0  0  0  0  0  0  0  0  0  0  0
    1.4400    9.5310   52.9200 O   0  0  0  0  0  0  0  0  0  0  0  0
    2.2760    3.3420   48.5180 S   0  0  0  0  0  0  0  0  0  0  0  0
    2.6420    8.7670   53.0320 S   0  0  2  0  0  0  0  0  0  0  0  0
  1  5  2  0
  1  9  1  0
  2  6  1  0
  2  9  2  0
  3  7  2  0
  3 10  1  0
  4  8  1  0
  4 10  2  0
  5 12  1  0
  6 12  2  0
  7 11  1  0
  8 11  2  0
  9 22  1  0
 10 23  1  0
 11 29  1  0
 12 30  1  0
 13 20  1  0
 13 22  1  0
 13 24  2  0
 14 15  1  0
 14 16  1  0
 15 17  1  0
 16 18  1  0
 17 19  1  0
 18 21  1  0
 19 21  1  0
 21 29  1  0
 23 30  2  0
 25 29  2  0
 26 29  2  0
 27 30  2  0
 30 28  1  1
M  CHG  1  28  -1
M  END
>  <washed_aromatic_smiles>  (638) 
CC(=O)Nc1ccc(cc1)S(=O)(=O)Nc2ccc(cc2)S(=O)(=O)N3CCCCCC3

>  <name>  (638) 
neg287082

$$$$
neg103073
     RDKit          3D

 29 31  0  0  0  0  0  0  0  0999 V2000
    6.3650   12.7910   59.3920 C   0  0  0  0  0  0  0  0  0  0  0  0
    6.1850   13.7150   58.3600 C   0  0  0  0  0  0  0  0  0  0  0  0
    5.8120   11.5190   59.2890 C   0  0  0  0  0  0  0  0  0  0  0  0
    5.4570   13.3660   57.2580 C   0  0  0  0  0  0  0  0  0  0  0  0
    3.6770    8.9700   52.2330 C   0  0  0  0  0  0  0  0  0  0  0  0
    3.6490    7.9930   54.4330 C   0  0  0  0  0  0  0  0  0  0  0  0
    4.3970   10.0510   52.7150 C   0  0  0  0  0  0  0  0  0  0  0  0
    4.3380    9.1030   54.8910 C   0  0  0  0  0  0  0  0  0  0  0  0
    5.0420   11.1200   58.1980 C   0  0  0  0  0  0  0  0  0  0  0  0
    3.2710    7.9710   53.1000 C   0  0  0  0  0  0  0  0  0  0  0  0
    4.8590   12.0780   57.1520 C   0  0  0  0  0  0  0  0  0  0  0  0
    4.6120   10.1870   54.0610 C   0  0  0  0  0  0  0  0  0  0  0  0
    4.4750    9.7810   58.1260 C   0  0  0  0  0  0  0  0  0  0  0  0
    1.1450    6.8780   52.8780 C   0  0  0  0  0  0  0  0  0  0  0  0
    7.6100    6.3290   58.9570 C   0  0  0  0  0  0  0  0  0  0  0  0
    6.3420    5.7400   59.5390 C   0  0  0  0  0  0  0  0  0  0  0  0
    7.4910    7.8190   58.6150 C   0  0  0  0  0  0  0  0  0  0  0  0
    5.2520    5.9290   58.5010 C   0  0  0  0  0  0  0  0  0  0  0  0
    6.4620    8.3920   57.6530 C   0  0  0  0  0  0  0  0  0  0  0  0
    4.6010    7.3190   58.5050 C   0  0  0  0  0  0  0  0  0  0  0  0
    0.3400    5.9710   51.9990 C   0  0  0  0  0  0  0  0  0  0  0  0
    5.2430    8.5990   58.3400 N   0  0  0  0  0  0  0  0  0  0  0  0
    2.4700    6.9590   52.5740 N   0  0  0  0  0  0  0  0  0  0  0  0
    4.1970   11.7720   56.0810 N   0  0  0  0  0  0  0  0  0  0  0  0
    3.2930    9.5900   57.8060 O   0  0  0  0  0  0  0  0  0  0  0  0
    0.6630    7.5430   53.7750 O   0  0  0  0  0  0  0  0  0  0  0  0
    4.4010   12.7900   53.8040 O   0  0  0  0  0  0  0  0  0  0  0  0
    6.3810   11.9120   54.8870 O   0  0  0  0  0  0  0  0  0  0  0  0
    4.9810   11.8120   54.6790 S   0  0  2  0  0  0  0  0  0  0  0  0
  1  2  2  0
  1  3  1  0
  2  4  1  0
  3  9  2  0
  4 11  2  0
  5  7  2  0
  5 10  1  0
  6  8  1  0
  6 10  2  0
  7 12  1  0
  8 12  2  0
  9 11  1  0
  9 13  1  0
 10 23  1  0
 11 24  1  0
 12 29  1  0
 13 22  1  0
 13 25  2  0
 14 21  1  0
 14 23  1  0
 14 26  2  0
 15 16  1  0
 15 17  1  0
 16 18  1  0
 17 19  1  0
 18 20  1  0
 19 22  1  0
 20 22  1  0
 24 29  2  0
 27 29  2  0
 29 28  1  1
M  CHG  1  28  -1
M  END
>  <washed_aromatic_smiles>  (639) 
CC(=O)Nc1ccc(cc1)S(=O)(=O)Nc2ccccc2C(=O)N3CCCCCC3

>  <name>  (639) 
neg103073

$$$$
neg82347
     RDKit          3D

 29 31  0  0  0  0  0  0  0  0999 V2000
    2.2090   -0.4780   53.8020 C   0  0  0  0  0  0  0  0  0  0  0  0
    2.6080   -1.3020   52.7640 C   0  0  0  0  0  0  0  0  0  0  0  0
    1.2630    0.5000   53.5570 C   0  0  0  0  0  0  0  0  0  0  0  0
    3.7830    9.3730   53.5810 C   0  0  0  0  0  0  0  0  0  0  0  0
    2.0540    8.6370   55.0900 C   0  0  0  0  0  0  0  0  0  0  0  0
    3.2100    8.6030   52.5770 C   0  0  0  0  0  0  0  0  0  0  0  0
    1.5240    7.8180   54.0990 C   0  0  0  0  0  0  0  0  0  0  0  0
    2.1120   -1.1140   51.4850 C   0  0  0  0  0  0  0  0  0  0  0  0
    0.7000    0.6410   52.2940 C   0  0  0  0  0  0  0  0  0  0  0  0
    3.2260    9.3510   54.8600 C   0  0  0  0  0  0  0  0  0  0  0  0
    2.1440    7.7310   52.8490 C   0  0  0  0  0  0  0  0  0  0  0  0
    1.1420   -0.1560   51.2440 C   0  0  0  0  0  0  0  0  0  0  0  0
    2.8300    5.4670   49.3030 C   0  0  0  0  0  0  0  0  0  0  0  0
    4.6910   11.0450   56.0470 C   0  0  0  0  0  0  0  0  0  0  0  0
    2.3140    3.3700   50.3790 C   0  0  0  0  0  0  0  0  0  0  0  0
    1.6820    3.7390   47.9740 C   0  0  0  0  0  0  0  0  0  0  0  0
    2.5140    1.9650   49.8350 C   0  0  0  0  0  0  0  0  0  0  0  0
    0.9130    2.3840   48.0510 C   0  0  0  0  0  0  0  0  0  0  0  0
    5.0720   11.4680   57.4420 C   0  0  0  0  0  0  0  0  0  0  0  0
    3.0510    6.1920   50.6190 C   0  0  0  0  0  0  0  0  0  0  0  0
    2.1620    4.3010   49.2710 N   0  0  0  0  0  0  0  0  0  0  0  0
    1.2730    1.5570   49.2090 N   0  0  0  0  0  0  0  0  0  0  0  0
    3.7780   10.0230   55.9940 N   0  0  0  0  0  0  0  0  0  0  0  0
    3.2970    5.9460   48.2720 O   0  0  0  0  0  0  0  0  0  0  0  0
    5.1520   11.5730   55.0530 O   0  0  0  0  0  0  0  0  0  0  0  0
    1.0450   -0.9120   48.7310 O   0  0  0  0  0  0  0  0  0  0  0  0
   -0.8540    0.2610   49.6410 O   0  0  0  0  0  0  0  0  0  0  0  0
    1.5930    6.5140   51.6950 S   0  0  0  0  0  0  0  0  0  0  0  0
    0.5540    0.1140   49.5860 S   0  0  0  0  0  0  0  0  0  0  0  0
  1  2  2  0
  1  3  1  0
  2  8  1  0
  3  9  2  0
  4  6  2  0
  4 10  1  0
  5  7  1  0
  5 10  2  0
  6 11  1  0
  7 11  2  0
  8 12  2  0
  9 12  1  0
 10 23  1  0
 11 28  1  0
 12 29  1  0
 13 20  1  0
 13 21  1  0
 13 24  2  0
 14 19  1  0
 14 23  1  0
 14 25  2  0
 15 17  1  0
 15 21  1  0
 16 18  1  0
 16 21  1  0
 17 22  1  0
 18 22  1  0
 20 28  1  0
 22 29  1  0
 26 29  2  0
 27 29  2  0
M  END
>  <washed_aromatic_smiles>  (640) 
CC(=O)Nc1ccc(cc1)SCC(=O)N2CCN(CC2)S(=O)(=O)c3ccccc3

>  <name>  (640) 
neg82347

$$$$
neg17233
     RDKit          3D

 28 30  0  0  0  0  0  0  0  0999 V2000
    0.9710    2.0180   48.4520 C   0  0  0  0  0  0  0  0  0  0  0  0
    1.2670    3.3390   48.2090 C   0  0  0  0  0  0  0  0  0  0  0  0
    1.3170    1.4750   49.6810 C   0  0  0  0  0  0  0  0  0  0  0  0
    1.8420    4.1300   49.1830 C   0  0  0  0  0  0  0  0  0  0  0  0
    3.7690    7.4160   54.9580 C   0  0  0  0  0  0  0  0  0  0  0  0
    3.4710    6.6010   53.8600 C   0  0  0  0  0  0  0  0  0  0  0  0
    3.2350    8.5050   52.4810 C   0  0  0  0  0  0  0  0  0  0  0  0
    1.9990    2.2040   50.6600 C   0  0  0  0  0  0  0  0  0  0  0  0
    2.2010    3.6510   50.4860 C   0  0  0  0  0  0  0  0  0  0  0  0
    3.8660    8.7930   54.7960 C   0  0  0  0  0  0  0  0  0  0  0  0
    3.6870    9.3150   53.5180 C   0  0  0  0  0  0  0  0  0  0  0  0
    3.0800    7.1260   52.6440 C   0  0  0  0  0  0  0  0  0  0  0  0
    4.4300    9.4890   57.1830 C   0  0  0  0  0  0  0  0  0  0  0  0
    2.6860   -0.4150   54.1680 C   0  0  0  0  0  0  0  0  0  0  0  0
    2.2080   -0.8670   52.7850 C   0  0  0  0  0  0  0  0  0  0  0  0
    2.5700    1.1060   54.2700 C   0  0  0  0  0  0  0  0  0  0  0  0
    2.8010   -0.0260   51.6490 C   0  0  0  0  0  0  0  0  0  0  0  0
    3.0550    1.8650   53.0120 C   0  0  0  0  0  0  0  0  0  0  0  0
    4.7250   10.7270   57.9890 C   0  0  0  0  0  0  0  0  0  0  0  0
    5.4010   10.8430   52.8320 C   0  0  0  0  0  0  0  0  0  0  0  0
    2.4100    1.3960   51.8030 N   0  0  0  0  0  0  0  0  0  0  0  0
    4.1890    9.7100   55.8450 N   0  0  0  0  0  0  0  0  0  0  0  0
    2.6480    4.5370   51.4610 N   0  0  0  0  0  0  0  0  0  0  0  0
    4.3990    8.3840   57.6900 O   0  0  0  0  0  0  0  0  0  0  0  0
    3.2810    6.5640   50.1220 O   0  0  0  0  0  0  0  0  0  0  0  0
    1.0620    6.4230   51.1740 O   0  0  0  0  0  0  0  0  0  0  0  0
    4.0390   10.6200   53.2590 O   0  0  0  0  0  0  0  0  0  0  0  0
    2.4710    6.1530   51.2370 S   0  0  2  0  0  0  0  0  0  0  0  0
  1  2  2  0
  1  3  1  0
  2  4  1  0
  3  8  2  0
  4  9  2  0
  5  6  2  0
  5 10  1  0
  6 12  1  0
  7 11  1  0
  7 12  2  0
  8  9  1  0
  8 21  1  0
  9 23  1  0
 10 11  2  0
 10 22  1  0
 11 27  1  0
 12 28  1  0
 13 19  1  0
 13 22  1  0
 13 24  2  0
 14 15  1  0
 14 16  1  0
 15 17  1  0
 16 18  1  0
 17 21  1  0
 18 21  1  0
 20 27  1  0
 23 28  2  0
 25 28  2  0
 28 26  1  6
M  CHG  1  26  -1
M  END
>  <washed_aromatic_smiles>  (641) 
CC(=O)Nc1ccc(cc1OC)S(=O)(=O)Nc2ccccc2N3CCCCC3

>  <name>  (641) 
neg17233

$$$$
neg80966
     RDKit          3D

 32 34  0  0  0  0  0  0  0  0999 V2000
    0.5540    7.9850   52.4140 C   0  0  0  0  0  0  0  0  0  0  0  0
    0.8540    1.9410   47.4970 C   0  0  0  0  0  0  0  0  0  0  0  0
    5.3730    7.9260   58.7330 C   0  0  0  0  0  0  0  0  0  0  0  0
    0.7470    6.7680   51.7770 C   0  0  0  0  0  0  0  0  0  0  0  0
    1.5680    8.5470   53.1660 C   0  0  0  0  0  0  0  0  0  0  0  0
    1.1700    3.1840   48.0540 C   0  0  0  0  0  0  0  0  0  0  0  0
    4.8760    7.4690   57.5220 C   0  0  0  0  0  0  0  0  0  0  0  0
    0.9050    0.7810   48.2720 C   0  0  0  0  0  0  0  0  0  0  0  0
    5.4490    9.2910   58.9770 C   0  0  0  0  0  0  0  0  0  0  0  0
    2.9850    6.6730   52.6650 C   0  0  0  0  0  0  0  0  0  0  0  0
    1.4900    2.1240   50.2000 C   0  0  0  0  0  0  0  0  0  0  0  0
    4.5220    9.7700   56.7940 C   0  0  0  0  0  0  0  0  0  0  0  0
    1.9750    6.1100   51.8830 C   0  0  0  0  0  0  0  0  0  0  0  0
    2.7900    7.8950   53.3020 C   0  0  0  0  0  0  0  0  0  0  0  0
    1.4750    3.2750   49.4150 C   0  0  0  0  0  0  0  0  0  0  0  0
    4.4470    8.3920   56.5660 C   0  0  0  0  0  0  0  0  0  0  0  0
    1.2650    0.8870   49.6160 C   0  0  0  0  0  0  0  0  0  0  0  0
    5.0460   10.2070   58.0070 C   0  0  0  0  0  0  0  0  0  0  0  0
    2.2010    4.8220   51.2570 C   0  0  0  0  0  0  0  0  0  0  0  0
    3.7990    8.4650   54.1650 C   0  0  0  0  0  0  0  0  0  0  0  0
    2.4930   -0.3280   51.3260 C   0  0  0  0  0  0  0  0  0  0  0  0
    5.6580   12.5750   57.5070 C   0  0  0  0  0  0  0  0  0  0  0  0
    2.2730   -1.0750   52.6090 C   0  0  0  0  0  0  0  0  0  0  0  0
    6.1370   13.8320   58.1940 C   0  0  0  0  0  0  0  0  0  0  0  0
    1.6770    4.5670   49.9950 N   0  0  0  0  0  0  0  0  0  0  0  0
    3.8790    7.8620   55.3950 N   0  0  0  0  0  0  0  0  0  0  0  0
    1.4240   -0.2380   50.4570 N   0  0  0  0  0  0  0  0  0  0  0  0
    5.2070   11.5760   58.3390 N   0  0  0  0  0  0  0  0  0  0  0  0
    2.8390    3.9630   51.8410 O   0  0  0  0  0  0  0  0  0  0  0  0
    4.5070    9.4220   53.8730 O   0  0  0  0  0  0  0  0  0  0  0  0
    3.5500    0.2240   51.0770 O   0  0  0  0  0  0  0  0  0  0  0  0
    5.7440   12.4200   56.3040 O   0  0  0  0  0  0  0  0  0  0  0  0
  1  4  2  0
  1  5  1  0
  2  6  2  0
  2  8  1  0
  3  7  2  0
  3  9  1  0
  4 13  1  0
  5 14  2  0
  6 15  1  0
  7 16  1  0
  8 17  2  0
  9 18  2  0
 10 13  2  0
 10 14  1  0
 11 15  2  0
 11 17  1  0
 12 16  2  0
 12 18  1  0
 13 19  1  0
 14 20  1  0
 15 25  1  0
 16 26  1  0
 17 27  1  0
 18 28  1  0
 19 25  1  0
 19 29  2  0
 20 26  1  0
 20 30  2  0
 21 23  1  0
 21 27  1  0
 21 31  2  0
 22 24  1  0
 22 28  1  0
 22 32  2  0
M  END
>  <washed_aromatic_smiles>  (642) 
CC(=O)Nc1cccc(c1)NC(=O)c2cccc(c2)C(=O)Nc3cccc(c3)NC(=O)C

>  <name>  (642) 
neg80966

$$$$
neg85321
     RDKit          3D

 27 29  0  0  0  0  0  0  0  0999 V2000
    5.1990   13.1440   56.4650 C   0  0  0  0  0  0  0  0  0  0  0  0
    5.2700   13.3650   55.0950 C   0  0  0  0  0  0  0  0  0  0  0  0
    5.2050   11.8470   56.9610 C   0  0  0  0  0  0  0  0  0  0  0  0
    1.6710    8.4090   54.6450 C   0  0  0  0  0  0  0  0  0  0  0  0
    1.4870    3.0870   48.1760 C   0  0  0  0  0  0  0  0  0  0  0  0
    1.2410    7.4440   53.7470 C   0  0  0  0  0  0  0  0  0  0  0  0
    5.4000   12.2970   54.2200 C   0  0  0  0  0  0  0  0  0  0  0  0
    5.3210   10.7740   56.0850 C   0  0  0  0  0  0  0  0  0  0  0  0
    1.8060    4.3240   48.7300 C   0  0  0  0  0  0  0  0  0  0  0  0
    1.5130    1.9330   48.9550 C   0  0  0  0  0  0  0  0  0  0  0  0
    2.8010    9.1540   54.3670 C   0  0  0  0  0  0  0  0  0  0  0  0
    2.9460    8.1010   52.1940 C   0  0  0  0  0  0  0  0  0  0  0  0
    2.2300    3.2480   50.8660 C   0  0  0  0  0  0  0  0  0  0  0  0
    1.8960    7.2470   52.5270 C   0  0  0  0  0  0  0  0  0  0  0  0
    5.4440   10.9980   54.7120 C   0  0  0  0  0  0  0  0  0  0  0  0
    2.1470    4.3970   50.0830 C   0  0  0  0  0  0  0  0  0  0  0  0
    1.8900    2.0180   50.2980 C   0  0  0  0  0  0  0  0  0  0  0  0
    3.4260    9.0070   53.1310 C   0  0  0  0  0  0  0  0  0  0  0  0
    1.4920    6.1380   51.6700 C   0  0  0  0  0  0  0  0  0  0  0  0
    2.6840    0.5090   52.1200 C   0  0  0  0  0  0  0  0  0  0  0  0
    2.3360   -0.7460   52.8810 C   0  0  0  0  0  0  0  0  0  0  0  0
    5.6250    9.8480   53.7500 C   0  0  0  0  0  0  0  0  0  0  0  0
    2.3560    5.6540   50.7010 N   0  0  0  0  0  0  0  0  0  0  0  0
    1.8560    0.8260   51.0700 N   0  0  0  0  0  0  0  0  0  0  0  0
    0.4200    5.5690   51.8180 O   0  0  0  0  0  0  0  0  0  0  0  0
    3.6470    1.1940   52.3990 O   0  0  0  0  0  0  0  0  0  0  0  0
    4.5360    9.7450   52.8140 O   0  0  0  0  0  0  0  0  0  0  0  0
  1  2  2  0
  1  3  1  0
  2  7  1  0
  3  8  2  0
  4  6  2  0
  4 11  1  0
  5  9  2  0
  5 10  1  0
  6 14  1  0
  7 15  2  0
  8 15  1  0
  9 16  1  0
 10 17  2  0
 11 18  2  0
 12 14  2  0
 12 18  1  0
 13 16  2  0
 13 17  1  0
 14 19  1  0
 15 22  1  0
 16 23  1  0
 17 24  1  0
 18 27  1  0
 19 23  1  0
 19 25  2  0
 20 21  1  0
 20 24  1  0
 20 26  2  0
 22 27  1  0
M  END
>  <washed_aromatic_smiles>  (643) 
CC(=O)Nc1cccc(c1)NC(=O)c2cccc(c2)OCc3ccccc3

>  <name>  (643) 
neg85321

$$$$
neg250671
     RDKit          3D

 25 27  0  0  0  0  0  0  0  0999 V2000
    2.1330    4.1220   50.9400 C   0  0  0  0  0  0  0  0  0  0  0  0
    1.4320    3.0610   50.4140 C   0  0  0  0  0  0  0  0  0  0  0  0
    2.1150    1.6160   52.2120 C   0  0  0  0  0  0  0  0  0  0  0  0
    2.8860    3.8900   52.0710 C   0  0  0  0  0  0  0  0  0  0  0  0
    1.3730    1.8290   51.0900 C   0  0  0  0  0  0  0  0  0  0  0  0
    3.0870    2.5310   52.4520 C   0  0  0  0  0  0  0  0  0  0  0  0
    3.2390    7.5500   52.6670 C   0  0  0  0  0  0  0  0  0  0  0  0
    4.7640   11.5890   53.6430 C   0  0  0  0  0  0  0  0  0  0  0  0
    6.1360   11.0260   53.9560 C   0  0  0  0  0  0  0  0  0  0  0  0
   -0.7890    0.7140   47.1160 C   0  0  0  0  0  0  0  0  0  0  0  0
    0.6510    0.6670   46.7030 C   0  0  0  0  0  0  0  0  0  0  0  0
    3.8980   10.3470   53.7380 C   0  0  0  0  0  0  0  0  0  0  0  0
    5.9920    9.5140   54.2240 C   0  0  0  0  0  0  0  0  0  0  0  0
   -0.7660   -0.0090   48.4220 C   0  0  0  0  0  0  0  0  0  0  0  0
    1.1710    1.1800   48.0360 C   0  0  0  0  0  0  0  0  0  0  0  0
    4.7850    9.2360   53.3680 C   0  0  0  0  0  0  0  0  0  0  0  0
    2.5210    6.2720   52.8650 C   0  0  0  0  0  0  0  0  0  0  0  0
    0.1970    0.7620   49.0550 N   0  0  0  0  0  0  0  0  0  0  0  0
    4.0750    7.9920   53.6170 N   0  0  0  0  0  0  0  0  0  0  0  0
    3.0600    8.1630   51.6330 O   0  0  0  0  0  0  0  0  0  0  0  0
    1.5210   -0.6960   50.5660 O   0  0  0  0  0  0  0  0  0  0  0  0
   -0.5930    0.2130   51.3500 O   0  0  0  0  0  0  0  0  0  0  0  0
    3.3880    5.0290   52.7340 O   0  0  0  0  0  0  0  0  0  0  0  0
    0.5800    0.3770   50.5670 S   0  0  0  0  0  0  0  0  0  0  0  0
    4.4720    1.5650   52.2790 Cl  0  0  0  0  0  0  0  0  0  0  0  0
  1  2  2  0
  1  4  1  0
  2  5  1  0
  3  5  2  0
  3  6  1  0
  4  6  2  0
  4 23  1  0
  5 24  1  0
  6 25  1  0
  7 17  1  0
  7 19  1  0
  7 20  2  0
  8  9  1  0
  8 12  1  0
  9 13  1  0
 10 11  1  0
 10 14  1  0
 11 15  1  0
 12 16  1  0
 13 16  1  0
 14 18  1  0
 15 18  1  0
 16 19  1  0
 17 23  1  0
 18 24  1  0
 21 24  2  0
 22 24  2  0
M  END
>  <washed_aromatic_smiles>  (644) 
c1cc(c(cc1S(=O)(=O)N2CCCC2)Cl)OCC(=O)NC3CCCC3

>  <name>  (644) 
neg250671

$$$$
neg27281
     RDKit          3D

 25 27  0  0  0  0  0  0  0  0999 V2000
    1.3810    1.1110   49.2320 C   0  0  0  0  0  0  0  0  0  0  0  0
    0.9930    2.2130   48.4850 C   0  0  0  0  0  0  0  0  0  0  0  0
    2.8980    6.8140   52.9050 C   0  0  0  0  0  0  0  0  0  0  0  0
    0.5730    7.3150   52.6110 C   0  0  0  0  0  0  0  0  0  0  0  0
    2.6890    2.5450   50.6470 C   0  0  0  0  0  0  0  0  0  0  0  0
    2.9480    7.8170   53.8650 C   0  0  0  0  0  0  0  0  0  0  0  0
    0.7050    8.2940   53.5880 C   0  0  0  0  0  0  0  0  0  0  0  0
    2.2250    3.6660   49.9880 C   0  0  0  0  0  0  0  0  0  0  0  0
    1.6890    6.5660   52.2580 C   0  0  0  0  0  0  0  0  0  0  0  0
    2.2840    1.2680   50.2900 C   0  0  0  0  0  0  0  0  0  0  0  0
    1.4700    3.4740   48.8390 C   0  0  0  0  0  0  0  0  0  0  0  0
    2.5200    4.9840   50.5100 C   0  0  0  0  0  0  0  0  0  0  0  0
    3.2460    1.3080   53.4100 C   0  0  0  0  0  0  0  0  0  0  0  0
    1.7210   -0.5160   53.4550 C   0  0  0  0  0  0  0  0  0  0  0  0
    3.3970    1.2260   54.9460 C   0  0  0  0  0  0  0  0  0  0  0  0
    2.2430   -0.7850   54.8580 C   0  0  0  0  0  0  0  0  0  0  0  0
    1.8710    8.5340   54.1990 N   0  0  0  0  0  0  0  0  0  0  0  0
    2.7900    0.1030   52.7350 N   0  0  0  0  0  0  0  0  0  0  0  0
    1.5310    5.5450   51.2990 N   0  0  0  0  0  0  0  0  0  0  0  0
    3.5720    5.5740   50.3050 O   0  0  0  0  0  0  0  0  0  0  0  0
    2.3020   -1.2940   50.6900 O   0  0  0  0  0  0  0  0  0  0  0  0
    4.4100   -0.1050   50.8310 O   0  0  0  0  0  0  0  0  0  0  0  0
    2.5130    0.3920   55.5460 O   0  0  0  0  0  0  0  0  0  0  0  0
    3.0140   -0.1370   51.1090 S   0  0  0  0  0  0  0  0  0  0  0  0
    1.2160    4.8190   47.8470 Cl  0  0  0  0  0  0  0  0  0  0  0  0
  1  2  2  0
  1 10  1  0
  2 11  1  0
  3  6  2  0
  3  9  1  0
  4  7  1  0
  4  9  2  0
  5  8  1  0
  5 10  2  0
  6 17  1  0
  7 17  2  0
  8 11  2  0
  8 12  1  0
  9 19  1  0
 10 24  1  0
 11 25  1  0
 12 19  1  0
 12 20  2  0
 13 15  1  0
 13 18  1  0
 14 16  1  0
 14 18  1  0
 15 23  1  0
 16 23  1  0
 18 24  1  0
 21 24  2  0
 22 24  2  0
M  END
>  <washed_aromatic_smiles>  (645) 
c1cc(c(cc1S(=O)(=O)N2CCOCC2)C(=O)Nc3ccncc3)Cl

>  <name>  (645) 
neg27281

$$$$
neg63467
     RDKit          3D

 28 30  0  0  0  0  0  0  0  0999 V2000
    1.4100    3.3240   48.3460 C   0  0  0  0  0  0  0  0  0  0  0  0
    0.9610    8.1180   53.6750 C   0  0  0  0  0  0  0  0  0  0  0  0
    0.8690    2.1270   47.9120 C   0  0  0  0  0  0  0  0  0  0  0  0
    0.7220    8.5900   54.9320 C   0  0  0  0  0  0  0  0  0  0  0  0
    1.7270    1.0360   49.9230 C   0  0  0  0  0  0  0  0  0  0  0  0
    3.1100    8.8250   55.2700 C   0  0  0  0  0  0  0  0  0  0  0  0
    2.2590    2.2320   50.3820 C   0  0  0  0  0  0  0  0  0  0  0  0
    3.3840    8.2150   54.0740 C   0  0  0  0  0  0  0  0  0  0  0  0
    2.0410    3.4020   49.6010 C   0  0  0  0  0  0  0  0  0  0  0  0
    2.2740    7.7530   53.2830 C   0  0  0  0  0  0  0  0  0  0  0  0
    1.0100    1.0160   48.7350 C   0  0  0  0  0  0  0  0  0  0  0  0
    1.8140    8.8870   55.7230 C   0  0  0  0  0  0  0  0  0  0  0  0
    3.3910    5.4240   50.5040 C   0  0  0  0  0  0  0  0  0  0  0  0
    0.9810    5.2100   50.6500 C   0  0  0  0  0  0  0  0  0  0  0  0
    3.3060    5.8180   51.9990 C   0  0  0  0  0  0  0  0  0  0  0  0
    1.0290    6.3500   51.6640 C   0  0  0  0  0  0  0  0  0  0  0  0
    2.9980    2.1740   51.7080 C   0  0  0  0  0  0  0  0  0  0  0  0
    4.8840    8.2100   53.9130 C   0  0  0  0  0  0  0  0  0  0  0  0
    2.2050    4.7140   50.0680 N   0  0  0  0  0  0  0  0  0  0  0  0
    2.3380    6.8920   52.1430 N   0  0  0  0  0  0  0  0  0  0  0  0
    0.3910   -0.2020   48.3870 N   0  0  0  0  0  0  0  0  0  0  0  0
    1.6410    9.1290   57.0870 N   0  0  0  0  0  0  0  0  0  0  0  0
    1.0870   -1.1690   48.1460 O   0  0  0  0  0  0  0  0  0  0  0  0
    2.6450    9.3050   57.7560 O   0  0  0  0  0  0  0  0  0  0  0  0
   -0.8240   -0.2850   48.3820 O   0  0  0  0  0  0  0  0  0  0  0  0
    0.5320    9.0100   57.5890 O   0  0  0  0  0  0  0  0  0  0  0  0
    2.3830    1.2820   52.6630 O   0  0  0  0  0  0  0  0  0  0  0  0
    5.3490    9.4090   53.2550 O   0  0  0  0  0  0  0  0  0  0  0  0
  1  3  2  0
  1  9  1  0
  2  4  2  0
  2 10  1  0
  3 11  1  0
  4 12  1  0
  5  7  1  0
  5 11  2  0
  6  8  1  0
  6 12  2  0
  7  9  2  0
  7 17  1  0
  8 10  2  0
  8 18  1  0
  9 19  1  0
 10 20  1  0
 11 21  1  0
 12 22  1  0
 13 15  1  0
 13 19  1  0
 14 16  1  0
 14 19  1  0
 15 20  1  0
 16 20  1  0
 17 27  1  0
 18 28  1  0
 21 23  1  0
 21 25  2  0
 22 24  1  0
 22 26  2  0
M  CHG  4  21   1  22   1  23  -1  24  -1
M  END
>  <washed_aromatic_smiles>  (646) 
c1cc(c(cc1[N+](=O)[O-])CO)N2CCN(CC2)c3ccc(cc3CO)[N+](=O)[O-]

>  <name>  (646) 
neg63467

$$$$
neg107301
     RDKit          3D

 25 27  0  0  0  0  0  0  0  0999 V2000
    1.3370    3.7590   48.0140 C   0  0  0  0  0  0  0  0  0  0  0  0
    1.7870    4.3870   49.1590 C   0  0  0  0  0  0  0  0  0  0  0  0
    3.5650    6.5650   53.2300 C   0  0  0  0  0  0  0  0  0  0  0  0
    1.7550    7.9600   52.4780 C   0  0  0  0  0  0  0  0  0  0  0  0
    4.2170    7.6960   53.7010 C   0  0  0  0  0  0  0  0  0  0  0  0
    2.4490    9.0890   52.9080 C   0  0  0  0  0  0  0  0  0  0  0  0
    1.0020    2.4110   48.0270 C   0  0  0  0  0  0  0  0  0  0  0  0
    1.5720    2.3130   50.3670 C   0  0  0  0  0  0  0  0  0  0  0  0
    1.8770    3.6810   50.3560 C   0  0  0  0  0  0  0  0  0  0  0  0
    2.3650    6.7090   52.5400 C   0  0  0  0  0  0  0  0  0  0  0  0
    3.7110    8.9690   53.4940 C   0  0  0  0  0  0  0  0  0  0  0  0
    1.1230    1.6850   49.2080 C   0  0  0  0  0  0  0  0  0  0  0  0
    2.2690    4.3710   51.5700 C   0  0  0  0  0  0  0  0  0  0  0  0
    4.9530    9.3070   56.4040 C   0  0  0  0  0  0  0  0  0  0  0  0
    5.1750   11.7250   56.1720 C   0  0  0  0  0  0  0  0  0  0  0  0
    4.6980    9.5160   57.9020 C   0  0  0  0  0  0  0  0  0  0  0  0
    4.8810   11.8120   57.6740 C   0  0  0  0  0  0  0  0  0  0  0  0
    4.6520   10.4930   55.5660 N   0  0  0  0  0  0  0  0  0  0  0  0
    1.7910    5.6650   51.7620 N   0  0  0  0  0  0  0  0  0  0  0  0
    2.9310    3.8150   52.4280 O   0  0  0  0  0  0  0  0  0  0  0  0
    6.1400    9.9610   53.6060 O   0  0  0  0  0  0  0  0  0  0  0  0
    4.3310   11.5260   53.2750 O   0  0  0  0  0  0  0  0  0  0  0  0
    5.3530   10.6780   58.3800 O   0  0  0  0  0  0  0  0  0  0  0  0
    4.7980   10.3400   53.9130 S   0  0  0  0  0  0  0  0  0  0  0  0
    0.6350   -0.1370   49.2300 Br  0  0  0  0  0  0  0  0  0  0  0  0
  1  2  2  0
  1  7  1  0
  2  9  1  0
  3  5  2  0
  3 10  1  0
  4  6  1  0
  4 10  2  0
  5 11  1  0
  6 11  2  0
  7 12  2  0
  8  9  2  0
  8 12  1  0
  9 13  1  0
 10 19  1  0
 11 24  1  0
 12 25  1  0
 13 19  1  0
 13 20  2  0
 14 16  1  0
 14 18  1  0
 15 17  1  0
 15 18  1  0
 16 23  1  0
 17 23  1  0
 18 24  1  0
 21 24  2  0
 22 24  2  0
M  END
>  <washed_aromatic_smiles>  (647) 
c1cc(cc(c1)Br)C(=O)Nc2ccc(cc2)S(=O)(=O)N3CCOCC3

>  <name>  (647) 
neg107301

$$$$
neg149957
     RDKit          3D

 32 34  0  0  0  0  0  0  0  0999 V2000
    3.5730    5.7090   49.3990 C   0  0  0  0  0  0  0  0  0  0  0  0
    5.2280   13.0320   56.3690 C   0  0  0  0  0  0  0  0  0  0  0  0
    5.6960    0.1680   57.4880 C   0  0  0  0  0  0  0  0  0  0  0  0
    2.9190    6.3520   50.4390 C   0  0  0  0  0  0  0  0  0  0  0  0
    3.2310    4.4100   49.0460 C   0  0  0  0  0  0  0  0  0  0  0  0
    5.3660   12.7540   55.0060 C   0  0  0  0  0  0  0  0  0  0  0  0
    4.8610   -0.4220   56.5340 C   0  0  0  0  0  0  0  0  0  0  0  0
    1.5570    4.4120   50.7640 C   0  0  0  0  0  0  0  0  0  0  0  0
    5.0710   11.8470   56.9990 C   0  0  0  0  0  0  0  0  0  0  0  0
    5.3010    1.4540   57.6120 C   0  0  0  0  0  0  0  0  0  0  0  0
    1.8900    5.7150   51.1180 C   0  0  0  0  0  0  0  0  0  0  0  0
    2.2330    3.7400   49.7470 C   0  0  0  0  0  0  0  0  0  0  0  0
    5.2980   11.4100   54.8660 C   0  0  0  0  0  0  0  0  0  0  0  0
    3.9950    0.5320   56.1150 C   0  0  0  0  0  0  0  0  0  0  0  0
    2.2840    8.3750   53.2320 C   0  0  0  0  0  0  0  0  0  0  0  0
    2.5850    0.9810   51.3930 C   0  0  0  0  0  0  0  0  0  0  0  0
    3.5990    8.7980   53.7220 C   0  0  0  0  0  0  0  0  0  0  0  0
    2.1960    0.6200   52.7580 C   0  0  0  0  0  0  0  0  0  0  0  0
    1.1280    6.4450   52.2050 C   0  0  0  0  0  0  0  0  0  0  0  0
    1.8820    2.3060   49.3980 C   0  0  0  0  0  0  0  0  0  0  0  0
    5.3810   10.5470   53.6290 C   0  0  0  0  0  0  0  0  0  0  0  0
    2.8440    0.4690   55.1330 C   0  0  0  0  0  0  0  0  0  0  0  0
    2.0230    7.0290   53.1990 N   0  0  0  0  0  0  0  0  0  0  0  0
    1.6010    1.4690   50.5650 N   0  0  0  0  0  0  0  0  0  0  0  0
    4.0890    9.9930   53.2530 N   0  0  0  0  0  0  0  0  0  0  0  0
    3.1740    0.5540   53.7210 N   0  0  0  0  0  0  0  0  0  0  0  0
    1.4330    9.1660   52.8330 O   0  0  0  0  0  0  0  0  0  0  0  0
    3.7400    0.8870   50.9850 O   0  0  0  0  0  0  0  0  0  0  0  0
    4.2760    8.1230   54.4970 O   0  0  0  0  0  0  0  0  0  0  0  0
    1.0260    0.4130   53.0780 O   0  0  0  0  0  0  0  0  0  0  0  0
    5.1120   10.8430   56.0900 O   0  0  0  0  0  0  0  0  0  0  0  0
    4.2550    1.6880   56.7810 O   0  0  0  0  0  0  0  0  0  0  0  0
  1  4  2  0
  1  5  1  0
  2  6  1  0
  2  9  2  0
  3  7  1  0
  3 10  2  0
  4 11  1  0
  5 12  2  0
  6 13  2  0
  7 14  2  0
  8 11  2  0
  8 12  1  0
  9 31  1  0
 10 32  1  0
 11 19  1  0
 12 20  1  0
 13 21  1  0
 13 31  1  0
 14 22  1  0
 14 32  1  0
 15 17  1  0
 15 23  1  0
 15 27  2  0
 16 18  1  0
 16 24  1  0
 16 28  2  0
 17 25  1  0
 17 29  2  0
 18 26  1  0
 18 30  2  0
 19 23  1  0
 20 24  1  0
 21 25  1  0
 22 26  1  0
M  END
>  <washed_aromatic_smiles>  (648) 
c1cc(cc(c1)CNC(=O)C(=O)NCc2ccco2)CNC(=O)C(=O)NCc3ccco3

>  <name>  (648) 
neg149957

$$$$
neg279349
     RDKit          3D

 25 27  0  0  0  0  0  0  0  0999 V2000
    5.3880   12.0190   54.7340 C   0  0  0  0  0  0  0  0  0  0  0  0
    2.6610    3.8830   51.1850 C   0  0  0  0  0  0  0  0  0  0  0  0
    2.8170    5.0780   49.1200 C   0  0  0  0  0  0  0  0  0  0  0  0
    4.8250   11.1830   53.7750 C   0  0  0  0  0  0  0  0  0  0  0  0
    2.8970    5.0550   51.8850 C   0  0  0  0  0  0  0  0  0  0  0  0
    3.1010    6.2380   49.8200 C   0  0  0  0  0  0  0  0  0  0  0  0
    5.3510   11.6670   56.0790 C   0  0  0  0  0  0  0  0  0  0  0  0
    4.1730    9.6210   55.5180 C   0  0  0  0  0  0  0  0  0  0  0  0
    2.4660    3.8950   49.7890 C   0  0  0  0  0  0  0  0  0  0  0  0
    2.9720    6.2580   51.2030 C   0  0  0  0  0  0  0  0  0  0  0  0
    4.2040    9.9940   54.1710 C   0  0  0  0  0  0  0  0  0  0  0  0
    4.7580   10.4620   56.4670 C   0  0  0  0  0  0  0  0  0  0  0  0
    1.9180    2.7800   48.9870 C   0  0  0  0  0  0  0  0  0  0  0  0
    3.2760    7.8990   53.0990 C   0  0  0  0  0  0  0  0  0  0  0  0
    0.9920    1.4300   50.9090 C   0  0  0  0  0  0  0  0  0  0  0  0
    1.0710    0.4200   48.6740 C   0  0  0  0  0  0  0  0  0  0  0  0
   -0.0620    0.3540   51.1040 C   0  0  0  0  0  0  0  0  0  0  0  0
   -0.3880   -0.0140   48.7700 C   0  0  0  0  0  0  0  0  0  0  0  0
    1.4360    1.5820   49.5210 N   0  0  0  0  0  0  0  0  0  0  0  0
    2.8920    7.5240   51.8260 N   0  0  0  0  0  0  0  0  0  0  0  0
    3.5790    9.2460   53.1380 N   0  0  0  0  0  0  0  0  0  0  0  0
    1.8180    2.8940   47.7660 O   0  0  0  0  0  0  0  0  0  0  0  0
    3.3830    7.1300   54.0530 O   0  0  0  0  0  0  0  0  0  0  0  0
   -0.9840    0.3340   50.0250 O   0  0  0  0  0  0  0  0  0  0  0  0
    4.7540   10.0170   58.1410 Cl  0  0  0  0  0  0  0  0  0  0  0  0
  1  4  2  0
  1  7  1  0
  2  5  2  0
  2  9  1  0
  3  6  1  0
  3  9  2  0
  4 11  1  0
  5 10  1  0
  6 10  2  0
  7 12  2  0
  8 11  2  0
  8 12  1  0
  9 13  1  0
 10 20  1  0
 11 21  1  0
 12 25  1  0
 13 19  1  0
 13 22  2  0
 14 20  1  0
 14 21  1  0
 14 23  2  0
 15 17  1  0
 15 19  1  0
 16 18  1  0
 16 19  1  0
 17 24  1  0
 18 24  1  0
M  END
>  <washed_aromatic_smiles>  (649) 
c1cc(cc(c1)Cl)NC(=O)Nc2ccc(cc2)C(=O)N3CCOCC3

>  <name>  (649) 
neg279349

$$$$
neg31421
     RDKit          3D

 26 28  0  0  0  0  0  0  0  0999 V2000
    3.7040    9.6610   56.1700 C   0  0  0  0  0  0  0  0  0  0  0  0
    1.5840    3.9000   48.1200 C   0  0  0  0  0  0  0  0  0  0  0  0
    3.2480    8.7650   55.2040 C   0  0  0  0  0  0  0  0  0  0  0  0
    2.1280    4.6570   49.1420 C   0  0  0  0  0  0  0  0  0  0  0  0
    4.5740   10.6910   55.8160 C   0  0  0  0  0  0  0  0  0  0  0  0
    1.1550    2.6010   48.3390 C   0  0  0  0  0  0  0  0  0  0  0  0
    4.5310    9.9270   53.5030 C   0  0  0  0  0  0  0  0  0  0  0  0
    1.8170    2.7960   50.6430 C   0  0  0  0  0  0  0  0  0  0  0  0
    3.6570    8.9010   53.8700 C   0  0  0  0  0  0  0  0  0  0  0  0
    2.1810    4.1300   50.4320 C   0  0  0  0  0  0  0  0  0  0  0  0
    4.9680   10.8040   54.4860 C   0  0  0  0  0  0  0  0  0  0  0  0
    1.2650    2.0340   49.6030 C   0  0  0  0  0  0  0  0  0  0  0  0
    2.1700    7.1630   52.7580 C   0  0  0  0  0  0  0  0  0  0  0  0
    1.5860   -0.0100   53.6190 C   0  0  0  0  0  0  0  0  0  0  0  0
    2.8490   -0.5340   52.9720 C   0  0  0  0  0  0  0  0  0  0  0  0
    0.6260    0.2380   52.4680 C   0  0  0  0  0  0  0  0  0  0  0  0
    2.6900   -0.3260   51.4680 C   0  0  0  0  0  0  0  0  0  0  0  0
    2.0650    6.3470   51.4780 C   0  0  0  0  0  0  0  0  0  0  0  0
    1.2720   -0.1550   51.2390 N   0  0  0  0  0  0  0  0  0  0  0  0
    3.2520    8.0120   52.8360 N   0  0  0  0  0  0  0  0  0  0  0  0
    2.5410    4.9430   51.5320 N   0  0  0  0  0  0  0  0  0  0  0  0
    1.3320    7.1150   53.6380 O   0  0  0  0  0  0  0  0  0  0  0  0
   -0.7790    0.4410   49.9590 O   0  0  0  0  0  0  0  0  0  0  0  0
    1.1040   -0.4440   48.7430 O   0  0  0  0  0  0  0  0  0  0  0  0
    5.8040   11.8110   54.1390 F   0  0  0  0  0  0  0  0  0  0  0  0
    0.6320    0.3640   49.8140 S   0  0  0  0  0  0  0  0  0  0  0  0
  1  3  2  0
  1  5  1  0
  2  4  2  0
  2  6  1  0
  3  9  1  0
  4 10  1  0
  5 11  2  0
  6 12  2  0
  7  9  2  0
  7 11  1  0
  8 10  2  0
  8 12  1  0
  9 20  1  0
 10 21  1  0
 11 25  1  0
 12 26  1  0
 13 18  1  0
 13 20  1  0
 13 22  2  0
 14 15  1  0
 14 16  1  0
 15 17  1  0
 16 19  1  0
 17 19  1  0
 18 21  1  0
 19 26  1  0
 23 26  2  0
 24 26  2  0
M  END
>  <washed_aromatic_smiles>  (650) 
c1cc(cc(c1)F)NC(=O)CNc2cccc(c2)S(=O)(=O)N3CCCC3

>  <name>  (650) 
neg31421

$$$$
neg14212
     RDKit          3D

 28 30  0  0  0  0  0  0  0  0999 V2000
    4.7110   11.4580   56.1220 C   0  0  0  0  0  0  0  0  0  0  0  0
    1.7170    3.6600   49.8930 C   0  0  0  0  0  0  0  0  0  0  0  0
    2.6780    4.0980   52.0250 C   0  0  0  0  0  0  0  0  0  0  0  0
    4.3750   10.2860   55.4450 C   0  0  0  0  0  0  0  0  0  0  0  0
    5.1220   12.5840   55.4100 C   0  0  0  0  0  0  0  0  0  0  0  0
    2.2150    2.3420   49.9360 C   0  0  0  0  0  0  0  0  0  0  0  0
    3.0300    2.7820   52.1150 C   0  0  0  0  0  0  0  0  0  0  0  0
    4.9140   11.3430   53.3240 C   0  0  0  0  0  0  0  0  0  0  0  0
    1.9330    4.5590   50.9630 C   0  0  0  0  0  0  0  0  0  0  0  0
    4.4550   10.2450   54.0450 C   0  0  0  0  0  0  0  0  0  0  0  0
    5.2080   12.5030   54.0230 C   0  0  0  0  0  0  0  0  0  0  0  0
    2.9020    1.9000   51.0720 C   0  0  0  0  0  0  0  0  0  0  0  0
    1.3100    5.8810   51.0720 C   0  0  0  0  0  0  0  0  0  0  0  0
    2.8610    8.4340   53.5290 C   0  0  0  0  0  0  0  0  0  0  0  0
    1.9160    0.1040   54.4850 C   0  0  0  0  0  0  0  0  0  0  0  0
    1.0730   -0.4350   53.3640 C   0  0  0  0  0  0  0  0  0  0  0  0
    3.3220    0.0780   54.0380 C   0  0  0  0  0  0  0  0  0  0  0  0
    2.0640   -1.0310   52.4160 C   0  0  0  0  0  0  0  0  0  0  0  0
    2.7260    7.0750   52.8930 C   0  0  0  0  0  0  0  0  0  0  0  0
    3.2760   -0.3150   52.6630 N   0  0  0  0  0  0  0  0  0  0  0  0
    4.0470    9.0990   53.3270 N   0  0  0  0  0  0  0  0  0  0  0  0
    0.2530    6.0860   50.5460 O   0  0  0  0  0  0  0  0  0  0  0  0
    2.0140    8.8800   54.2810 O   0  0  0  0  0  0  0  0  0  0  0  0
    3.9110   -0.4810   50.3880 O   0  0  0  0  0  0  0  0  0  0  0  0
    5.2110    0.9990   51.6900 O   0  0  0  0  0  0  0  0  0  0  0  0
    1.7470    6.9440   51.8310 O   0  0  0  0  0  0  0  0  0  0  0  0
    5.5680   13.5920   53.3210 F   0  0  0  0  0  0  0  0  0  0  0  0
    3.9380    0.4670   51.3980 S   0  0  0  0  0  0  0  0  0  0  0  0
  1  4  2  0
  1  5  1  0
  2  6  2  0
  2  9  1  0
  3  7  1  0
  3  9  2  0
  4 10  1  0
  5 11  2  0
  6 12  1  0
  7 12  2  0
  8 10  2  0
  8 11  1  0
  9 13  1  0
 10 21  1  0
 11 27  1  0
 12 28  1  0
 13 22  2  0
 13 26  1  0
 14 19  1  0
 14 21  1  0
 14 23  2  0
 15 16  1  0
 15 17  1  0
 16 18  1  0
 17 20  1  0
 18 20  1  0
 19 26  1  0
 20 28  1  0
 24 28  2  0
 25 28  2  0
M  END
>  <washed_aromatic_smiles>  (651) 
c1cc(cc(c1)F)NC(=O)COC(=O)c2ccc(cc2)S(=O)(=O)N3CCCC3

>  <name>  (651) 
neg14212

$$$$
neg183493
     RDKit          3D

 25 28  0  0  0  0  0  0  0  0999 V2000
   -0.1480    8.5780   53.8320 C   0  0  0  0  0  0  0  0  0  0  0  0
    5.4950    9.7580   58.8870 C   0  0  0  0  0  0  0  0  0  0  0  0
    0.2470    7.8250   52.7560 C   0  0  0  0  0  0  0  0  0  0  0  0
    0.6110    8.6020   54.9850 C   0  0  0  0  0  0  0  0  0  0  0  0
    4.0480    6.1040   52.9450 C   0  0  0  0  0  0  0  0  0  0  0  0
    5.5170   11.1370   58.6740 C   0  0  0  0  0  0  0  0  0  0  0  0
    5.2360    8.8920   57.8370 C   0  0  0  0  0  0  0  0  0  0  0  0
    3.1340    5.5870   52.0270 C   0  0  0  0  0  0  0  0  0  0  0  0
    5.0640   10.7980   56.3310 C   0  0  0  0  0  0  0  0  0  0  0  0
    1.4970    7.1870   52.7860 C   0  0  0  0  0  0  0  0  0  0  0  0
    2.4000    7.5840   53.7890 C   0  0  0  0  0  0  0  0  0  0  0  0
    1.9350    8.2920   54.9050 C   0  0  0  0  0  0  0  0  0  0  0  0
    3.7440    7.2060   53.7420 C   0  0  0  0  0  0  0  0  0  0  0  0
    5.3700   11.6700   57.3810 C   0  0  0  0  0  0  0  0  0  0  0  0
    4.9360    9.4390   56.5930 C   0  0  0  0  0  0  0  0  0  0  0  0
    1.8920    6.1510   51.9050 C   0  0  0  0  0  0  0  0  0  0  0  0
    2.8260    8.6690   55.9610 C   0  0  0  0  0  0  0  0  0  0  0  0
    4.6840    8.0180   54.5290 C   0  0  0  0  0  0  0  0  0  0  0  0
    5.5430   13.0990   57.1300 C   0  0  0  0  0  0  0  0  0  0  0  0
    4.1890    8.6570   55.6870 N   0  0  0  0  0  0  0  0  0  0  0  0
    2.4290    9.0380   57.0660 O   0  0  0  0  0  0  0  0  0  0  0  0
    5.8700    8.1920   54.2560 O   0  0  0  0  0  0  0  0  0  0  0  0
    5.0950   13.5970   56.0610 O   0  0  0  0  0  0  0  0  0  0  0  0
    6.1690   13.8000   57.9710 O   0  0  0  0  0  0  0  0  0  0  0  0
    0.8630    5.5140   50.6880 Cl  0  0  0  0  0  0  0  0  0  0  0  0
  1  3  2  0
  1  4  1  0
  2  6  2  0
  2  7  1  0
  3 10  1  0
  4 12  2  0
  5  8  1  0
  5 13  2  0
  6 14  1  0
  7 15  2  0
  8 16  2  0
  9 14  2  0
  9 15  1  0
 10 11  2  0
 10 16  1  0
 11 12  1  0
 11 13  1  0
 12 17  1  0
 13 18  1  0
 14 19  1  0
 15 20  1  0
 16 25  1  0
 17 20  1  0
 17 21  2  0
 18 20  1  0
 18 22  2  0
 19 23  1  0
 19 24  2  0
M  CHG  1  23  -1
M  END
>  <washed_aromatic_smiles>  (652) 
c1cc(cc(c1)N2C(=O)c3cccc4c3c(ccc4Cl)C2=O)C(=O)O

>  <name>  (652) 
neg183493

$$$$
neg108351
     RDKit          3D

 26 28  0  0  0  0  0  0  0  0999 V2000
    0.3420    7.5650   53.3030 C   0  0  0  0  0  0  0  0  0  0  0  0
    6.0770   12.1010   53.0730 C   0  0  0  0  0  0  0  0  0  0  0  0
    0.3810    6.7120   52.2070 C   0  0  0  0  0  0  0  0  0  0  0  0
    1.4760    7.8110   54.0390 C   0  0  0  0  0  0  0  0  0  0  0  0
    4.7820   11.7240   53.3370 C   0  0  0  0  0  0  0  0  0  0  0  0
    2.7610    6.4440   52.4950 C   0  0  0  0  0  0  0  0  0  0  0  0
    1.6850    2.6120   49.0780 C   0  0  0  0  0  0  0  0  0  0  0  0
    2.5040    1.8790   51.2480 C   0  0  0  0  0  0  0  0  0  0  0  0
    6.7650   10.9680   52.8020 C   0  0  0  0  0  0  0  0  0  0  0  0
    1.5870    6.1080   51.8190 C   0  0  0  0  0  0  0  0  0  0  0  0
    2.6870    7.3820   53.5140 C   0  0  0  0  0  0  0  0  0  0  0  0
    2.2720    2.8850   50.3160 C   0  0  0  0  0  0  0  0  0  0  0  0
    1.4200    0.3230   49.7670 C   0  0  0  0  0  0  0  0  0  0  0  0
    1.2290    1.3310   48.8100 C   0  0  0  0  0  0  0  0  0  0  0  0
    2.0740    0.5880   50.9810 C   0  0  0  0  0  0  0  0  0  0  0  0
    4.7550   10.3720   53.2340 C   0  0  0  0  0  0  0  0  0  0  0  0
    1.6060    5.1740   50.7070 C   0  0  0  0  0  0  0  0  0  0  0  0
    3.6360    9.4990   53.2540 C   0  0  0  0  0  0  0  0  0  0  0  0
    2.5740    4.1980   50.7130 N   0  0  0  0  0  0  0  0  0  0  0  0
    3.7770    8.2100   53.7450 N   0  0  0  0  0  0  0  0  0  0  0  0
    0.7650    5.1730   49.8230 O   0  0  0  0  0  0  0  0  0  0  0  0
    2.5650    9.8760   52.7960 O   0  0  0  0  0  0  0  0  0  0  0  0
    5.9840    9.9040   52.9490 O   0  0  0  0  0  0  0  0  0  0  0  0
    0.9840   -0.9460   49.4900 O   0  0  0  0  0  0  0  0  0  0  0  0
    0.3660    1.0200   47.1560 Br  0  0  0  0  0  0  0  0  0  0  0  0
    2.3950   -0.7290   52.2970 Br  0  0  0  0  0  0  0  0  0  0  0  0
  1  3  2  0
  1  4  1  0
  2  5  1  0
  2  9  2  0
  3 10  1  0
  4 11  2  0
  5 16  2  0
  6 10  2  0
  6 11  1  0
  7 12  2  0
  7 14  1  0
  8 12  1  0
  8 15  2  0
  9 23  1  0
 10 17  1  0
 11 20  1  0
 12 19  1  0
 13 14  2  0
 13 15  1  0
 13 24  1  0
 14 25  1  0
 15 26  1  0
 16 18  1  0
 16 23  1  0
 17 19  1  0
 17 21  2  0
 18 20  1  0
 18 22  2  0
M  END
>  <washed_aromatic_smiles>  (653) 
c1cc(cc(c1)NC(=O)c2ccco2)C(=O)Nc3cc(c(c(c3)Br)O)Br

>  <name>  (653) 
neg108351

$$$$
neg320501
     RDKit          3D

 27 29  0  0  0  0  0  0  0  0999 V2000
    0.1490    1.0090   47.8700 C   0  0  0  0  0  0  0  0  0  0  0  0
    0.5930    2.3190   47.7850 C   0  0  0  0  0  0  0  0  0  0  0  0
    0.6440    0.1840   48.8670 C   0  0  0  0  0  0  0  0  0  0  0  0
    2.0600    1.9660   49.6480 C   0  0  0  0  0  0  0  0  0  0  0  0
    1.5340    2.8040   48.6940 C   0  0  0  0  0  0  0  0  0  0  0  0
    1.6140    0.6640   49.7460 C   0  0  0  0  0  0  0  0  0  0  0  0
    3.9230    1.0900   56.1280 C   0  0  0  0  0  0  0  0  0  0  0  0
    2.1200    6.6080   52.8190 C   0  0  0  0  0  0  0  0  0  0  0  0
    0.7810    6.1670   52.2000 C   0  0  0  0  0  0  0  0  0  0  0  0
    3.2340    5.6520   52.3540 C   0  0  0  0  0  0  0  0  0  0  0  0
    2.9230    1.5850   53.7120 C   0  0  0  0  0  0  0  0  0  0  0  0
    2.4350   -0.6090   54.7850 C   0  0  0  0  0  0  0  0  0  0  0  0
    0.9700    5.8480   50.7310 C   0  0  0  0  0  0  0  0  0  0  0  0
    3.2960    5.5790   50.8190 C   0  0  0  0  0  0  0  0  0  0  0  0
    1.7650    1.1250   52.8260 C   0  0  0  0  0  0  0  0  0  0  0  0
    2.6240   -1.0060   53.3240 C   0  0  0  0  0  0  0  0  0  0  0  0
    2.8200    0.8680   55.0640 C   0  0  0  0  0  0  0  0  0  0  0  0
    2.0740    5.0090   50.2660 N   0  0  0  0  0  0  0  0  0  0  0  0
    1.9140   -0.2100   52.3540 N   0  0  0  0  0  0  0  0  0  0  0  0
    4.7950    0.1290   56.4310 N   0  0  0  0  0  0  0  0  0  0  0  0
    3.9480    2.1330   56.7630 O   0  0  0  0  0  0  0  0  0  0  0  0
    3.4600    4.4380   48.1930 O   0  0  0  0  0  0  0  0  0  0  0  0
    1.1780    5.1660   47.8600 O   0  0  0  0  0  0  0  0  0  0  0  0
    2.1250   -1.7160   50.4300 O   0  0  0  0  0  0  0  0  0  0  0  0
    3.8620   -0.0910   50.8020 O   0  0  0  0  0  0  0  0  0  0  0  0
    2.1130    4.4710   48.6600 S   0  0  0  0  0  0  0  0  0  0  0  0
    2.4750   -0.4260   50.8360 S   0  0  0  0  0  0  0  0  0  0  0  0
  1  2  2  0
  1  3  1  0
  2  5  1  0
  3  6  2  0
  4  5  2  0
  4  6  1  0
  5 26  1  0
  6 27  1  0
  7 17  1  0
  7 20  1  0
  7 21  2  0
  8  9  1  0
  8 10  1  0
  9 13  1  0
 10 14  1  0
 11 15  1  0
 11 17  1  0
 12 16  1  0
 12 17  1  0
 13 18  1  0
 14 18  1  0
 15 19  1  0
 16 19  1  0
 18 26  1  0
 19 27  1  0
 22 26  2  0
 23 26  2  0
 24 27  2  0
 25 27  2  0
M  END
>  <washed_aromatic_smiles>  (654) 
c1cc(cc(c1)S(=O)(=O)N2CCC(CC2)C(=O)N)S(=O)(=O)N3CCCCC3

>  <name>  (654) 
neg320501

$$$$
neg13868
     RDKit          3D

 25 27  0  0  0  0  0  0  0  0999 V2000
    0.9710    2.1360   47.3850 C   0  0  0  0  0  0  0  0  0  0  0  0
    1.6690    3.2780   47.7330 C   0  0  0  0  0  0  0  0  0  0  0  0
    0.5110    1.3010   48.3830 C   0  0  0  0  0  0  0  0  0  0  0  0
    1.5500    2.7080   50.0450 C   0  0  0  0  0  0  0  0  0  0  0  0
    1.9250    3.6100   49.0620 C   0  0  0  0  0  0  0  0  0  0  0  0
    0.7670    1.6220   49.7130 C   0  0  0  0  0  0  0  0  0  0  0  0
    2.5440    4.8880   49.3790 C   0  0  0  0  0  0  0  0  0  0  0  0
    1.3910    8.0260   54.1700 C   0  0  0  0  0  0  0  0  0  0  0  0
    3.2990   -0.0630   51.1270 C   0  0  0  0  0  0  0  0  0  0  0  0
    3.1030    0.5510   52.5090 C   0  0  0  0  0  0  0  0  0  0  0  0
    0.5390    6.4530   52.2770 C   0  0  0  0  0  0  0  0  0  0  0  0
    2.9160    7.2420   52.3280 C   0  0  0  0  0  0  0  0  0  0  0  0
    2.0130   -0.8510   50.8700 C   0  0  0  0  0  0  0  0  0  0  0  0
    1.6810    0.1960   52.9070 C   0  0  0  0  0  0  0  0  0  0  0  0
    1.2200    5.2860   51.5380 C   0  0  0  0  0  0  0  0  0  0  0  0
    3.0880    6.6510   50.9140 C   0  0  0  0  0  0  0  0  0  0  0  0
    1.4800    7.6010   52.6990 C   0  0  0  0  0  0  0  0  0  0  0  0
    2.1510    5.6540   50.4860 N   0  0  0  0  0  0  0  0  0  0  0  0
    0.9970   -0.2130   51.6900 N   0  0  0  0  0  0  0  0  0  0  0  0
    0.2020    8.4000   54.6240 N   0  0  0  0  0  0  0  0  0  0  0  0
    3.4380    5.3250   48.6510 O   0  0  0  0  0  0  0  0  0  0  0  0
    2.3890    8.0990   54.8850 O   0  0  0  0  0  0  0  0  0  0  0  0
   -0.5240    1.7460   51.9460 O   0  0  0  0  0  0  0  0  0  0  0  0
   -1.1660    0.1160   50.3510 O   0  0  0  0  0  0  0  0  0  0  0  0
   -0.1150    0.7980   50.9940 S   0  0  0  0  0  0  0  0  0  0  0  0
  1  2  2  0
  1  3  1  0
  2  5  1  0
  3  6  2  0
  4  5  2  0
  4  6  1  0
  5  7  1  0
  6 25  1  0
  7 18  1  0
  7 21  2  0
  8 17  1  0
  8 20  1  0
  8 22  2  0
  9 10  1  0
  9 13  1  0
 10 14  1  0
 11 15  1  0
 11 17  1  0
 12 16  1  0
 12 17  1  0
 13 19  1  0
 14 19  1  0
 15 18  1  0
 16 18  1  0
 19 25  1  0
 23 25  2  0
 24 25  2  0
M  END
>  <washed_aromatic_smiles>  (655) 
c1cc(cc(c1)S(=O)(=O)N2CCCC2)C(=O)N3CCC(CC3)C(=O)N

>  <name>  (655) 
neg13868

$$$$
neg51870
     RDKit          3D

 25 27  0  0  0  0  0  0  0  0999 V2000
    0.7250    8.0830   53.5670 C   0  0  0  0  0  0  0  0  0  0  0  0
    0.8450    6.9840   52.7280 C   0  0  0  0  0  0  0  0  0  0  0  0
    1.8610    8.6480   54.1380 C   0  0  0  0  0  0  0  0  0  0  0  0
    3.2290    6.9810   53.1230 C   0  0  0  0  0  0  0  0  0  0  0  0
    2.1030    6.4180   52.5090 C   0  0  0  0  0  0  0  0  0  0  0  0
    3.1300    8.1500   53.8690 C   0  0  0  0  0  0  0  0  0  0  0  0
    2.2780    5.2450   51.6700 C   0  0  0  0  0  0  0  0  0  0  0  0
    5.1940    8.8060   58.2390 C   0  0  0  0  0  0  0  0  0  0  0  0
    4.8620   10.2880   58.1870 C   0  0  0  0  0  0  0  0  0  0  0  0
    4.5180    8.2240   56.9960 C   0  0  0  0  0  0  0  0  0  0  0  0
    4.7200   10.5790   56.6970 C   0  0  0  0  0  0  0  0  0  0  0  0
    2.2930    1.6660   50.0380 C   0  0  0  0  0  0  0  0  0  0  0  0
    0.6360    1.4520   48.3150 C   0  0  0  0  0  0  0  0  0  0  0  0
    1.7320    0.3890   50.6940 C   0  0  0  0  0  0  0  0  0  0  0  0
    0.0910    0.2050   49.0350 C   0  0  0  0  0  0  0  0  0  0  0  0
    1.8460    3.5400   48.4990 C   0  0  0  0  0  0  0  0  0  0  0  0
    2.6310    4.5830   49.3160 C   0  0  0  0  0  0  0  0  0  0  0  0
    1.2780    2.3950   49.2510 N   0  0  0  0  0  0  0  0  0  0  0  0
    4.3350    9.3220   56.0510 N   0  0  0  0  0  0  0  0  0  0  0  0
    1.8780    5.2900   50.3580 N   0  0  0  0  0  0  0  0  0  0  0  0
    2.8170    4.2340   52.0960 O   0  0  0  0  0  0  0  0  0  0  0  0
    5.7480    8.3280   54.2180 O   0  0  0  0  0  0  0  0  0  0  0  0
    4.5220   10.3630   53.7650 O   0  0  0  0  0  0  0  0  0  0  0  0
    1.1280   -0.4700   49.7340 O   0  0  0  0  0  0  0  0  0  0  0  0
    4.5660    9.0970   54.4200 S   0  0  0  0  0  0  0  0  0  0  0  0
  1  2  2  0
  1  3  1  0
  2  5  1  0
  3  6  2  0
  4  5  2  0
  4  6  1  0
  5  7  1  0
  6 25  1  0
  7 20  1  0
  7 21  2  0
  8  9  1  0
  8 10  1  0
  9 11  1  0
 10 19  1  0
 11 19  1  0
 12 14  1  0
 12 18  1  0
 13 15  1  0
 13 18  1  0
 14 24  1  0
 15 24  1  0
 16 17  1  0
 16 18  1  0
 17 20  1  0
 19 25  1  0
 22 25  2  0
 23 25  2  0
M  END
>  <washed_aromatic_smiles>  (656) 
c1cc(cc(c1)S(=O)(=O)N2CCCC2)C(=O)NCCN3CCOCC3

>  <name>  (656) 
neg51870

$$$$
neg268367
     RDKit          3D

 31 34  0  0  0  0  0  0  0  0999 V2000
    1.1390    2.9140   48.5750 C   0  0  0  0  0  0  0  0  0  0  0  0
    1.4180   -0.1100   54.1470 C   0  0  0  0  0  0  0  0  0  0  0  0
    1.6400    1.7030   49.0530 C   0  0  0  0  0  0  0  0  0  0  0  0
    1.9950   -0.5200   52.9980 C   0  0  0  0  0  0  0  0  0  0  0  0
    1.4230    4.1140   49.2330 C   0  0  0  0  0  0  0  0  0  0  0  0
    1.9390    1.0120   54.7780 C   0  0  0  0  0  0  0  0  0  0  0  0
    2.6450    2.8730   50.8710 C   0  0  0  0  0  0  0  0  0  0  0  0
    3.6930    1.1260   53.3730 C   0  0  0  0  0  0  0  0  0  0  0  0
    2.4430    1.6770   50.1920 C   0  0  0  0  0  0  0  0  0  0  0  0
    3.0070    0.2640   52.5220 C   0  0  0  0  0  0  0  0  0  0  0  0
    2.1870    4.0990   50.3960 C   0  0  0  0  0  0  0  0  0  0  0  0
    3.2350    1.3360   54.6840 C   0  0  0  0  0  0  0  0  0  0  0  0
    1.5780    8.6660   53.0130 C   0  0  0  0  0  0  0  0  0  0  0  0
    0.5750    7.5980   53.3520 C   0  0  0  0  0  0  0  0  0  0  0  0
    5.6050    1.0410   59.0670 C   0  0  0  0  0  0  0  0  0  0  0  0
    5.5620   -0.3000   58.3450 C   0  0  0  0  0  0  0  0  0  0  0  0
    2.5910    7.9150   52.1760 C   0  0  0  0  0  0  0  0  0  0  0  0
    0.6520    6.5690   52.2120 C   0  0  0  0  0  0  0  0  0  0  0  0
    5.8550    2.0640   57.9580 C   0  0  0  0  0  0  0  0  0  0  0  0
    5.5380    0.0530   56.8530 C   0  0  0  0  0  0  0  0  0  0  0  0
    1.9100    6.7790   51.5000 N   0  0  0  0  0  0  0  0  0  0  0  0
    5.2850    1.4950   56.7390 N   0  0  0  0  0  0  0  0  0  0  0  0
    2.5500   -0.9700   50.3400 O   0  0  0  0  0  0  0  0  0  0  0  0
    4.6580    0.2300   50.5780 O   0  0  0  0  0  0  0  0  0  0  0  0
    3.4850    5.1430   52.4080 O   0  0  0  0  0  0  0  0  0  0  0  0
    3.8720    5.9970   50.1680 O   0  0  0  0  0  0  0  0  0  0  0  0
    3.6600    3.4160   56.3840 O   0  0  0  0  0  0  0  0  0  0  0  0
    2.9320    1.4020   57.3550 O   0  0  0  0  0  0  0  0  0  0  0  0
    3.2580    0.1730   50.8100 S   0  0  0  0  0  0  0  0  0  0  0  0
    2.9500    5.5470   51.1520 S   0  0  0  0  0  0  0  0  0  0  0  0
    3.7420    1.9960   56.3910 S   0  0  0  0  0  0  0  0  0  0  0  0
  1  3  2  0
  1  5  1  0
  2  4  2  0
  2  6  1  0
  3  9  1  0
  4 10  1  0
  5 11  2  0
  6 12  2  0
  7  9  2  0
  7 11  1  0
  8 10  2  0
  8 12  1  0
  9 29  1  0
 10 29  1  0
 11 30  1  0
 12 31  1  0
 13 14  1  0
 13 17  1  0
 14 18  1  0
 15 16  1  0
 15 19  1  0
 16 20  1  0
 17 21  1  0
 18 21  1  0
 19 22  1  0
 20 22  1  0
 21 30  1  0
 22 31  1  0
 23 29  2  0
 24 29  2  0
 25 30  2  0
 26 30  2  0
 27 31  2  0
 28 31  2  0
M  END
>  <washed_aromatic_smiles>  (657) 
c1cc(cc(c1)S(=O)(=O)N2CCCC2)S(=O)(=O)c3cccc(c3)S(=O)(=O)N4CCCC4

>  <name>  (657) 
neg268367

$$$$
neg65850
     RDKit          3D

 26 28  0  0  0  0  0  0  0  0999 V2000
    3.3860    6.7850   49.8740 C   0  0  0  0  0  0  0  0  0  0  0  0
    0.8240    0.0450   48.4240 C   0  0  0  0  0  0  0  0  0  0  0  0
    3.0300    5.4830   49.6980 C   0  0  0  0  0  0  0  0  0  0  0  0
    1.5500    0.8960   49.2430 C   0  0  0  0  0  0  0  0  0  0  0  0
   -0.4790   -0.2640   48.7700 C   0  0  0  0  0  0  0  0  0  0  0  0
    3.0660    7.4540   51.0490 C   0  0  0  0  0  0  0  0  0  0  0  0
    1.8250    5.5780   51.7920 C   0  0  0  0  0  0  0  0  0  0  0  0
   -0.2840    1.0130   50.8300 C   0  0  0  0  0  0  0  0  0  0  0  0
    2.1960    4.8870   50.6240 C   0  0  0  0  0  0  0  0  0  0  0  0
    0.9760    1.4050   50.4020 C   0  0  0  0  0  0  0  0  0  0  0  0
   -1.0190    0.2360   49.9500 C   0  0  0  0  0  0  0  0  0  0  0  0
    2.2950    6.8680   52.0370 C   0  0  0  0  0  0  0  0  0  0  0  0
    1.6280    3.6570   50.1540 C   0  0  0  0  0  0  0  0  0  0  0  0
    4.6990    9.2350   57.2100 C   0  0  0  0  0  0  0  0  0  0  0  0
    5.6170    8.4830   56.2580 C   0  0  0  0  0  0  0  0  0  0  0  0
    3.2820    8.7540   56.9560 C   0  0  0  0  0  0  0  0  0  0  0  0
    5.4870    8.9790   54.8070 C   0  0  0  0  0  0  0  0  0  0  0  0
    2.7130    9.0880   55.5810 C   0  0  0  0  0  0  0  0  0  0  0  0
    4.3660    8.3560   53.9410 C   0  0  0  0  0  0  0  0  0  0  0  0
    3.0140    8.1550   54.4850 N   0  0  0  0  0  0  0  0  0  0  0  0
    1.5910    2.5310   50.9480 N   0  0  0  0  0  0  0  0  0  0  0  0
    1.1980    3.5980   48.9990 O   0  0  0  0  0  0  0  0  0  0  0  0
    1.3960    9.1840   52.8480 O   0  0  0  0  0  0  0  0  0  0  0  0
    0.6990    7.2440   54.0800 O   0  0  0  0  0  0  0  0  0  0  0  0
   -2.3360   -0.0340   50.1630 O   0  0  0  0  0  0  0  0  0  0  0  0
    1.7440    7.9220   53.4050 S   0  0  0  0  0  0  0  0  0  0  0  0
  1  3  2  0
  1  6  1  0
  2  4  2  0
  2  5  1  0
  3  9  1  0
  4 10  1  0
  5 11  2  0
  6 12  2  0
  7  9  2  0
  7 12  1  0
  8 10  2  0
  8 11  1  0
  9 13  1  0
 10 21  1  0
 11 25  1  0
 12 26  1  0
 13 21  1  0
 13 22  2  0
 14 15  1  0
 14 16  1  0
 15 17  1  0
 16 18  1  0
 17 19  1  0
 18 20  1  0
 19 20  1  0
 20 26  1  0
 23 26  2  0
 24 26  2  0
M  END
>  <washed_aromatic_smiles>  (658) 
c1cc(cc(c1)S(=O)(=O)N2CCCCCC2)C(=O)Nc3cccc(c3)O

>  <name>  (658) 
neg65850

$$$$
neg82729
     RDKit          3D

 26 28  0  0  0  0  0  0  0  0999 V2000
    5.0390    9.4640   58.1450 C   0  0  0  0  0  0  0  0  0  0  0  0
    5.3200   10.7330   58.6200 C   0  0  0  0  0  0  0  0  0  0  0  0
    4.8660    9.2570   56.7800 C   0  0  0  0  0  0  0  0  0  0  0  0
    5.2010   11.5990   56.3410 C   0  0  0  0  0  0  0  0  0  0  0  0
    5.4170   11.7800   57.7100 C   0  0  0  0  0  0  0  0  0  0  0  0
    4.9380   10.3150   55.8590 C   0  0  0  0  0  0  0  0  0  0  0  0
    1.4350    5.9890   51.6120 C   0  0  0  0  0  0  0  0  0  0  0  0
    3.2160    6.5970   53.2210 C   0  0  0  0  0  0  0  0  0  0  0  0
    1.3500    8.1350   52.8280 C   0  0  0  0  0  0  0  0  0  0  0  0
    3.5770    7.6260   54.3080 C   0  0  0  0  0  0  0  0  0  0  0  0
    2.5040    9.1630   52.7740 C   0  0  0  0  0  0  0  0  0  0  0  0
    1.9660    3.7080   50.7680 C   0  0  0  0  0  0  0  0  0  0  0  0
    3.2560    5.6940   50.0260 C   0  0  0  0  0  0  0  0  0  0  0  0
    1.9110    3.2740   49.2920 C   0  0  0  0  0  0  0  0  0  0  0  0
    3.0270    5.1660   48.6020 C   0  0  0  0  0  0  0  0  0  0  0  0
    1.8710    6.7620   52.6770 N   0  0  0  0  0  0  0  0  0  0  0  0
    2.3290    5.1180   51.0090 N   0  0  0  0  0  0  0  0  0  0  0  0
    3.4280    9.0300   53.9140 N   0  0  0  0  0  0  0  0  0  0  0  0
    5.8340   13.0710   58.2090 N   0  0  0  0  0  0  0  0  0  0  0  0
    5.7100   14.0610   57.5160 O   0  0  0  0  0  0  0  0  0  0  0  0
    0.2860    6.0920   51.2040 O   0  0  0  0  0  0  0  0  0  0  0  0
    6.3560   13.1730   59.3090 O   0  0  0  0  0  0  0  0  0  0  0  0
    4.4710   11.3100   53.4700 O   0  0  0  0  0  0  0  0  0  0  0  0
    5.9290    9.3910   53.6190 O   0  0  0  0  0  0  0  0  0  0  0  0
    3.0250    3.7510   48.5610 O   0  0  0  0  0  0  0  0  0  0  0  0
    4.7510   10.0500   54.0740 S   0  0  0  0  0  0  0  0  0  0  0  0
  1  2  2  0
  1  3  1  0
  2  5  1  0
  3  6  2  0
  4  5  2  0
  4  6  1  0
  5 19  1  0
  6 26  1  0
  7 16  1  0
  7 17  1  0
  7 21  2  0
  8 10  1  0
  8 16  1  0
  9 11  1  0
  9 16  1  0
 10 18  1  0
 11 18  1  0
 12 14  1  0
 12 17  1  0
 13 15  1  0
 13 17  1  0
 14 25  1  0
 15 25  1  0
 18 26  1  0
 19 20  1  0
 19 22  2  0
 23 26  2  0
 24 26  2  0
M  CHG  2  19   1  20  -1
M  END
>  <washed_aromatic_smiles>  (659) 
c1cc(cc(c1)S(=O)(=O)N2CCN(CC2)C(=O)N3CCOCC3)[N+](=O)[O-]

>  <name>  (659) 
neg82729

$$$$
neg138660
     RDKit          3D

 27 29  0  0  0  0  0  0  0  0999 V2000
    3.0510    4.1390   48.5270 C   0  0  0  0  0  0  0  0  0  0  0  0
    3.4990    9.5690   56.8710 C   0  0  0  0  0  0  0  0  0  0  0  0
    3.1210    5.3460   49.2010 C   0  0  0  0  0  0  0  0  0  0  0  0
    2.3570    3.0670   49.0810 C   0  0  0  0  0  0  0  0  0  0  0  0
    2.2780    9.1260   56.3850 C   0  0  0  0  0  0  0  0  0  0  0  0
    4.5890    9.6680   56.0200 C   0  0  0  0  0  0  0  0  0  0  0  0
    1.7490    4.4120   50.9730 C   0  0  0  0  0  0  0  0  0  0  0  0
    3.2330    8.8660   54.1610 C   0  0  0  0  0  0  0  0  0  0  0  0
    2.4720    5.4750   50.4250 C   0  0  0  0  0  0  0  0  0  0  0  0
    1.7200    3.1650   50.3250 C   0  0  0  0  0  0  0  0  0  0  0  0
    2.1470    8.7720   55.0380 C   0  0  0  0  0  0  0  0  0  0  0  0
    4.4600    9.3290   54.6700 C   0  0  0  0  0  0  0  0  0  0  0  0
    2.9480    7.0300   52.3430 C   0  0  0  0  0  0  0  0  0  0  0  0
    3.4640    1.4420   52.0950 C   0  0  0  0  0  0  0  0  0  0  0  0
    1.8680   -0.1070   52.8400 C   0  0  0  0  0  0  0  0  0  0  0  0
    4.0420    0.4720   51.0760 C   0  0  0  0  0  0  0  0  0  0  0  0
    2.4290   -1.1770   51.8950 C   0  0  0  0  0  0  0  0  0  0  0  0
    3.0220    8.5140   52.6910 C   0  0  0  0  0  0  0  0  0  0  0  0
    2.0480    1.2030   52.2460 N   0  0  0  0  0  0  0  0  0  0  0  0
    2.5390    6.7410   51.0620 N   0  0  0  0  0  0  0  0  0  0  0  0
    3.3000    6.1420   53.0950 O   0  0  0  0  0  0  0  0  0  0  0  0
   -0.2650    1.7610   51.5600 O   0  0  0  0  0  0  0  0  0  0  0  0
    1.1110    0.6290   49.9560 O   0  0  0  0  0  0  0  0  0  0  0  0
    3.7350   -0.8660   51.4170 O   0  0  0  0  0  0  0  0  0  0  0  0
    1.0280    1.5990   50.9970 S   0  0  0  0  0  0  0  0  0  0  0  0
    0.5930    8.2440   54.4620 Cl  0  0  0  0  0  0  0  0  0  0  0  0
    5.8640    9.5440   53.6730 Cl  0  0  0  0  0  0  0  0  0  0  0  0
  1  3  2  0
  1  4  1  0
  2  5  2  0
  2  6  1  0
  3  9  1  0
  4 10  2  0
  5 11  1  0
  6 12  2  0
  7  9  2  0
  7 10  1  0
  8 11  2  0
  8 12  1  0
  8 18  1  0
  9 20  1  0
 10 25  1  0
 11 26  1  0
 12 27  1  0
 13 18  1  0
 13 20  1  0
 13 21  2  0
 14 16  1  0
 14 19  1  0
 15 17  1  0
 15 19  1  0
 16 24  1  0
 17 24  1  0
 19 25  1  0
 22 25  2  0
 23 25  2  0
M  END
>  <washed_aromatic_smiles>  (660) 
c1cc(cc(c1)S(=O)(=O)N2CCOCC2)NC(=O)Cc3c(cccc3Cl)Cl

>  <name>  (660) 
neg138660

$$$$
neg18121
     RDKit          3D

 26 28  0  0  0  0  0  0  0  0999 V2000
    0.8030    8.1100   54.0790 C   0  0  0  0  0  0  0  0  0  0  0  0
    2.4710    2.8580   50.2850 C   0  0  0  0  0  0  0  0  0  0  0  0
    1.5010    3.6260   48.2170 C   0  0  0  0  0  0  0  0  0  0  0  0
    0.8730    7.1100   53.1160 C   0  0  0  0  0  0  0  0  0  0  0  0
    1.9710    8.6490   54.6210 C   0  0  0  0  0  0  0  0  0  0  0  0
    1.8200    1.6410   50.1380 C   0  0  0  0  0  0  0  0  0  0  0  0
    0.8560    2.4080   48.0630 C   0  0  0  0  0  0  0  0  0  0  0  0
    3.2870    7.1140   53.3430 C   0  0  0  0  0  0  0  0  0  0  0  0
    2.3360    3.8440   49.3090 C   0  0  0  0  0  0  0  0  0  0  0  0
    2.1250    6.6330   52.7390 C   0  0  0  0  0  0  0  0  0  0  0  0
    3.2250    8.1890   54.2240 C   0  0  0  0  0  0  0  0  0  0  0  0
    1.0330    1.4110   49.0140 C   0  0  0  0  0  0  0  0  0  0  0  0
    2.8750    6.0860   50.4940 C   0  0  0  0  0  0  0  0  0  0  0  0
    3.9680   10.0100   57.2030 C   0  0  0  0  0  0  0  0  0  0  0  0
    5.0450    7.8590   57.1810 C   0  0  0  0  0  0  0  0  0  0  0  0
    4.7800   10.3860   58.4540 C   0  0  0  0  0  0  0  0  0  0  0  0
    5.8590    8.2500   58.4230 C   0  0  0  0  0  0  0  0  0  0  0  0
    3.1430    5.1160   49.3730 C   0  0  0  0  0  0  0  0  0  0  0  0
    4.7190    9.0460   56.4040 N   0  0  0  0  0  0  0  0  0  0  0  0
    2.2420    5.7180   51.6630 N   0  0  0  0  0  0  0  0  0  0  0  0
    3.2490    7.2270   50.3680 O   0  0  0  0  0  0  0  0  0  0  0  0
    5.8540    8.3280   54.2750 O   0  0  0  0  0  0  0  0  0  0  0  0
    4.6200   10.4050   54.2840 O   0  0  0  0  0  0  0  0  0  0  0  0
    5.1830    9.2320   59.1990 O   0  0  0  0  0  0  0  0  0  0  0  0
    4.7210    9.0570   54.7370 S   0  0  0  0  0  0  0  0  0  0  0  0
    0.2300   -0.2650   48.7600 Br  0  0  0  0  0  0  0  0  0  0  0  0
  1  4  2  0
  1  5  1  0
  2  6  2  0
  2  9  1  0
  3  7  1  0
  3  9  2  0
  4 10  1  0
  5 11  2  0
  6 12  1  0
  7 12  2  0
  8 10  2  0
  8 11  1  0
  9 18  1  0
 10 20  1  0
 11 25  1  0
 12 26  1  0
 13 18  1  0
 13 20  1  0
 13 21  2  0
 14 16  1  0
 14 19  1  0
 15 17  1  0
 15 19  1  0
 16 24  1  0
 17 24  1  0
 19 25  1  0
 22 25  2  0
 23 25  2  0
M  END
>  <washed_aromatic_smiles>  (661) 
c1cc(cc(c1)S(=O)(=O)N2CCOCC2)NC(=O)Cc3ccc(cc3)Br

>  <name>  (661) 
neg18121

$$$$
neg320508
     RDKit          3D

 30 33  0  0  0  0  0  0  0  0999 V2000
    0.3950    1.1460   48.3420 C   0  0  0  0  0  0  0  0  0  0  0  0
    0.7640    2.4650   48.1650 C   0  0  0  0  0  0  0  0  0  0  0  0
    1.0310    0.4020   49.3130 C   0  0  0  0  0  0  0  0  0  0  0  0
    2.3720    2.3020   49.9460 C   0  0  0  0  0  0  0  0  0  0  0  0
    1.7140    3.0560   49.0020 C   0  0  0  0  0  0  0  0  0  0  0  0
    2.0720    0.9670   50.0570 C   0  0  0  0  0  0  0  0  0  0  0  0
    4.7780    9.1250   54.3240 C   0  0  0  0  0  0  0  0  0  0  0  0
    4.1280    9.8530   53.1480 C   0  0  0  0  0  0  0  0  0  0  0  0
    3.7550    9.0570   55.4500 C   0  0  0  0  0  0  0  0  0  0  0  0
    3.1180    6.5380   52.2080 C   0  0  0  0  0  0  0  0  0  0  0  0
    0.6340    6.8260   52.0560 C   0  0  0  0  0  0  0  0  0  0  0  0
    2.6930    9.4000   52.7900 C   0  0  0  0  0  0  0  0  0  0  0  0
    2.5270    8.2320   55.0500 C   0  0  0  0  0  0  0  0  0  0  0  0
    2.9960    5.3000   51.3340 C   0  0  0  0  0  0  0  0  0  0  0  0
    0.6970    5.7120   50.9700 C   0  0  0  0  0  0  0  0  0  0  0  0
    1.7010   -0.7220   52.8880 C   0  0  0  0  0  0  0  0  0  0  0  0
    3.1810    1.2100   53.2300 C   0  0  0  0  0  0  0  0  0  0  0  0
    1.3760   -0.4380   54.3080 C   0  0  0  0  0  0  0  0  0  0  0  0
    3.1410    0.9690   54.7610 C   0  0  0  0  0  0  0  0  0  0  0  0
    1.8650    6.9730   52.9560 C   0  0  0  0  0  0  0  0  0  0  0  0
    2.0010    8.3420   53.6400 N   0  0  0  0  0  0  0  0  0  0  0  0
    1.9790    5.4810   50.3270 N   0  0  0  0  0  0  0  0  0  0  0  0
    2.8530    0.0070   52.4700 N   0  0  0  0  0  0  0  0  0  0  0  0
    3.4970    4.8140   48.3850 O   0  0  0  0  0  0  0  0  0  0  0  0
    1.1710    5.2260   47.8810 O   0  0  0  0  0  0  0  0  0  0  0  0
    2.7770   -1.3720   50.4490 O   0  0  0  0  0  0  0  0  0  0  0  0
    4.5240    0.2900   50.6620 O   0  0  0  0  0  0  0  0  0  0  0  0
    2.5430   -0.2730   55.0870 O   0  0  0  0  0  0  0  0  0  0  0  0
    2.1360    4.7490   48.7990 S   0  0  0  0  0  0  0  0  0  0  0  0
    3.1780   -0.1070   50.8970 S   0  0  0  0  0  0  0  0  0  0  0  0
  1  2  2  0
  1  3  1  0
  2  5  1  0
  3  6  2  0
  4  5  2  0
  4  6  1  0
  5 29  1  0
  6 30  1  0
  7  8  1  0
  7  9  1  0
  8 12  1  0
  9 13  1  0
 10 14  1  0
 10 20  1  0
 11 15  1  0
 11 20  1  0
 12 21  1  0
 13 21  1  0
 14 22  1  0
 15 22  1  0
 16 18  1  0
 16 23  1  0
 17 19  1  0
 17 23  1  0
 18 28  1  0
 19 28  1  0
 20 21  1  0
 22 29  1  0
 23 30  1  0
 24 29  2  0
 25 29  2  0
 26 30  2  0
 27 30  2  0
M  CHG  1  21   1
M  END
>  <washed_aromatic_smiles>  (662) 
c1cc(cc(c1)S(=O)(=O)N2CCOCC2)S(=O)(=O)N3CCC(CC3)N4CCCCC4

>  <name>  (662) 
neg320508

$$$$
neg99697
     RDKit          3D

 25 27  0  0  0  0  0  0  0  0999 V2000
    2.8550    2.3710   53.6060 C   0  0  0  0  0  0  0  0  0  0  0  0
    3.0110    3.4560   52.7320 C   0  0  0  0  0  0  0  0  0  0  0  0
    2.7310    1.1170   53.1260 C   0  0  0  0  0  0  0  0  0  0  0  0
    2.8840    2.0600   50.8900 C   0  0  0  0  0  0  0  0  0  0  0  0
    2.8830    3.3510   51.3650 C   0  0  0  0  0  0  0  0  0  0  0  0
    2.7690    0.9740   51.7680 C   0  0  0  0  0  0  0  0  0  0  0  0
    1.8830    8.7480   53.2380 C   0  0  0  0  0  0  0  0  0  0  0  0
    0.4600    8.4140   52.7920 C   0  0  0  0  0  0  0  0  0  0  0  0
    3.0320    8.1070   52.4750 C   0  0  0  0  0  0  0  0  0  0  0  0
    0.1440    6.9210   52.6390 C   0  0  0  0  0  0  0  0  0  0  0  0
    2.9450    6.5910   52.3740 C   0  0  0  0  0  0  0  0  0  0  0  0
    0.7070    6.0800   51.4970 C   0  0  0  0  0  0  0  0  0  0  0  0
   -0.0310    0.1720   51.1100 C   0  0  0  0  0  0  0  0  0  0  0  0
    1.0700    0.6170   49.1170 C   0  0  0  0  0  0  0  0  0  0  0  0
   -1.3150    0.3050   50.3070 C   0  0  0  0  0  0  0  0  0  0  0  0
   -0.0920    0.3270   48.2060 C   0  0  0  0  0  0  0  0  0  0  0  0
    2.1350    6.0460   51.2680 N   0  0  0  0  0  0  0  0  0  0  0  0
    1.0910   -0.2970   50.2930 N   0  0  0  0  0  0  0  0  0  0  0  0
    4.0040    5.1930   49.7930 O   0  0  0  0  0  0  0  0  0  0  0  0
    1.7510    4.4950   49.2920 O   0  0  0  0  0  0  0  0  0  0  0  0
    3.6040   -0.9450   50.4280 O   0  0  0  0  0  0  0  0  0  0  0  0
    2.1810   -1.4820   52.2720 O   0  0  0  0  0  0  0  0  0  0  0  0
   -1.2100   -0.1500   48.9380 O   0  0  0  0  0  0  0  0  0  0  0  0
    2.7230    4.8220   50.2840 S   0  0  0  0  0  0  0  0  0  0  0  0
    2.4700   -0.6150   51.1800 S   0  0  0  0  0  0  0  0  0  0  0  0
  1  2  2  0
  1  3  1  0
  2  5  1  0
  3  6  2  0
  4  5  2  0
  4  6  1  0
  5 24  1  0
  6 25  1  0
  7  8  1  0
  7  9  1  0
  8 10  1  0
  9 11  1  0
 10 12  1  0
 11 17  1  0
 12 17  1  0
 13 15  1  0
 13 18  1  0
 14 16  1  0
 14 18  1  0
 15 23  1  0
 16 23  1  0
 17 24  1  0
 18 25  1  0
 19 24  2  0
 20 24  2  0
 21 25  2  0
 22 25  2  0
M  END
>  <washed_aromatic_smiles>  (663) 
c1cc(cc(c1)S(=O)(=O)N2CCOCC2)S(=O)(=O)N3CCCCCC3

>  <name>  (663) 
neg99697

$$$$
neg206490
     RDKit          3D

 29 31  0  0  0  0  0  0  0  0999 V2000
    2.2900   -1.4800   51.9270 C   0  0  0  0  0  0  0  0  0  0  0  0
    3.6760    7.1140   53.5080 C   0  0  0  0  0  0  0  0  0  0  0  0
    1.8370   -0.6630   50.9140 C   0  0  0  0  0  0  0  0  0  0  0  0
    3.2860    6.3010   52.4330 C   0  0  0  0  0  0  0  0  0  0  0  0
    2.7180   -0.9670   53.1330 C   0  0  0  0  0  0  0  0  0  0  0  0
    2.7420    7.8270   54.2470 C   0  0  0  0  0  0  0  0  0  0  0  0
    2.2980    1.2710   52.2740 C   0  0  0  0  0  0  0  0  0  0  0  0
    1.0100    6.8910   52.8330 C   0  0  0  0  0  0  0  0  0  0  0  0
    1.7700    0.7130   51.0920 C   0  0  0  0  0  0  0  0  0  0  0  0
    1.9540    6.2650   52.0120 C   0  0  0  0  0  0  0  0  0  0  0  0
    2.6920    0.4080   53.3070 C   0  0  0  0  0  0  0  0  0  0  0  0
    1.4160    7.6940   53.8740 C   0  0  0  0  0  0  0  0  0  0  0  0
    1.0080    1.4210   50.0700 C   0  0  0  0  0  0  0  0  0  0  0  0
    1.4230    5.7390   50.7500 C   0  0  0  0  0  0  0  0  0  0  0  0
    3.5890    3.7620   48.3920 C   0  0  0  0  0  0  0  0  0  0  0  0
    2.9740    2.5890   49.2520 C   0  0  0  0  0  0  0  0  0  0  0  0
    3.3870    5.0680   49.1860 C   0  0  0  0  0  0  0  0  0  0  0  0
    0.8890    3.1740   48.2880 C   0  0  0  0  0  0  0  0  0  0  0  0
    1.1320    4.7160   48.4960 C   0  0  0  0  0  0  0  0  0  0  0  0
    1.5790    2.3790   49.2570 N   0  0  0  0  0  0  0  0  0  0  0  0
    2.0100    5.1190   49.6390 N   0  0  0  0  0  0  0  0  0  0  0  0
    3.0150    0.8750   54.6430 N   0  0  0  0  0  0  0  0  0  0  0  0
    0.3810    8.4670   54.4470 N   0  0  0  0  0  0  0  0  0  0  0  0
    3.6210    0.1700   55.4320 O   0  0  0  0  0  0  0  0  0  0  0  0
   -0.3460    9.0610   53.6770 O   0  0  0  0  0  0  0  0  0  0  0  0
   -0.1510    1.0890   49.8620 O   0  0  0  0  0  0  0  0  0  0  0  0
    0.2470    5.9550   50.5890 O   0  0  0  0  0  0  0  0  0  0  0  0
    2.6240    1.9530   55.0310 O   0  0  0  0  0  0  0  0  0  0  0  0
    0.1890    8.5260   55.6450 O   0  0  0  0  0  0  0  0  0  0  0  0
  1  3  2  0
  1  5  1  0
  2  4  2  0
  2  6  1  0
  3  9  1  0
  4 10  1  0
  5 11  2  0
  6 12  2  0
  7  9  2  0
  7 11  1  0
  8 10  2  0
  8 12  1  0
  9 13  1  0
 10 14  1  0
 11 22  1  0
 12 23  1  0
 13 20  1  0
 13 26  2  0
 14 21  1  0
 14 27  2  0
 15 16  1  0
 15 17  1  0
 16 20  1  0
 17 21  1  0
 18 19  1  0
 18 20  1  0
 19 21  1  0
 22 24  1  0
 22 28  2  0
 23 25  1  0
 23 29  2  0
M  CHG  4  22   1  23   1  24  -1  25  -1
M  END
>  <washed_aromatic_smiles>  (664) 
c1cc(cc(c1)[N+](=O)[O-])C(=O)N2CCCN(CC2)C(=O)c3cccc(c3)[N+](=O)[O-]

>  <name>  (664) 
neg206490

$$$$
neg194050
     RDKit          3D

 36 38  0  0  0  0  0  0  0  0999 V2000
    4.9990   10.5010   58.5200 C   0  0  0  0  0  0  0  0  0  0  0  0
    2.3370   -1.3870   52.1640 C   0  0  0  0  0  0  0  0  0  0  0  0
    4.9460   10.3640   57.1400 C   0  0  0  0  0  0  0  0  0  0  0  0
    2.0330   -0.5480   51.1120 C   0  0  0  0  0  0  0  0  0  0  0  0
    5.4470   11.6880   59.0740 C   0  0  0  0  0  0  0  0  0  0  0  0
    2.7300   -0.8830   53.3900 C   0  0  0  0  0  0  0  0  0  0  0  0
    5.7670   12.6210   56.8470 C   0  0  0  0  0  0  0  0  0  0  0  0
    2.5610    1.3680   52.4840 C   0  0  0  0  0  0  0  0  0  0  0  0
    5.3370   11.4160   56.2880 C   0  0  0  0  0  0  0  0  0  0  0  0
    2.1310    0.8330   51.2540 C   0  0  0  0  0  0  0  0  0  0  0  0
    5.8540   12.7100   58.2320 C   0  0  0  0  0  0  0  0  0  0  0  0
    2.8040    0.4910   53.5480 C   0  0  0  0  0  0  0  0  0  0  0  0
    5.3310   11.2280   54.8450 C   0  0  0  0  0  0  0  0  0  0  0  0
    1.7390    1.6160   50.0960 C   0  0  0  0  0  0  0  0  0  0  0  0
    0.9460    7.4350   52.8830 C   0  0  0  0  0  0  0  0  0  0  0  0
    3.2220    6.4990   52.8330 C   0  0  0  0  0  0  0  0  0  0  0  0
    0.5360    6.3600   51.8680 C   0  0  0  0  0  0  0  0  0  0  0  0
    2.7800    5.4710   51.8030 C   0  0  0  0  0  0  0  0  0  0  0  0
    3.1790    9.3190   54.1110 C   0  0  0  0  0  0  0  0  0  0  0  0
    2.2630    4.8010   48.8590 C   0  0  0  0  0  0  0  0  0  0  0  0
    2.6120    8.0260   54.6780 C   0  0  0  0  0  0  0  0  0  0  0  0
    1.2550    5.0060   50.0070 C   0  0  0  0  0  0  0  0  0  0  0  0
    4.6130    9.2900   53.5620 C   0  0  0  0  0  0  0  0  0  0  0  0
    2.3810    3.3510   48.4290 C   0  0  0  0  0  0  0  0  0  0  0  0
    2.1320    7.0190   53.7040 N   0  0  0  0  0  0  0  0  0  0  0  0
    1.6690    5.9860   51.0010 N   0  0  0  0  0  0  0  0  0  0  0  0
    5.5720    9.9530   54.4170 N   0  0  0  0  0  0  0  0  0  0  0  0
    2.6510    2.4750   49.5640 N   0  0  0  0  0  0  0  0  0  0  0  0
    6.4510   13.8530   58.8470 N   0  0  0  0  0  0  0  0  0  0  0  0
    3.0970    0.9530   54.8900 N   0  0  0  0  0  0  0  0  0  0  0  0
    6.2690   14.9470   58.3690 O   0  0  0  0  0  0  0  0  0  0  0  0
    3.7820    0.2900   55.6490 O   0  0  0  0  0  0  0  0  0  0  0  0
    5.0870   12.1120   54.0280 O   0  0  0  0  0  0  0  0  0  0  0  0
    0.6500    1.4760   49.5470 O   0  0  0  0  0  0  0  0  0  0  0  0
    7.1570   13.7240   59.8340 O   0  0  0  0  0  0  0  0  0  0  0  0
    2.6160    1.9860   55.3040 O   0  0  0  0  0  0  0  0  0  0  0  0
  1  3  2  0
  1  5  1  0
  2  4  2  0
  2  6  1  0
  3  9  1  0
  4 10  1  0
  5 11  2  0
  6 12  2  0
  7  9  2  0
  7 11  1  0
  8 10  2  0
  8 12  1  0
  9 13  1  0
 10 14  1  0
 11 29  1  0
 12 30  1  0
 13 27  1  0
 13 33  2  0
 14 28  1  0
 14 34  2  0
 15 17  1  0
 15 25  1  0
 16 18  1  0
 16 25  1  0
 17 26  1  0
 18 26  1  0
 19 21  1  0
 19 23  1  0
 20 22  1  0
 20 24  1  0
 21 25  1  0
 22 26  1  0
 23 27  1  0
 24 28  1  0
 29 31  1  0
 29 35  2  0
 30 32  1  0
 30 36  2  0
M  CHG  5  25   1  29   1  30   1  31  -1  32  -1
M  END
>  <washed_aromatic_smiles>  (665) 
c1cc(cc(c1)[N+](=O)[O-])C(=O)NCCCN2CCN(CC2)CCCNC(=O)c3cccc(c3)[N+](=O)[O-]

>  <name>  (665) 
neg194050

$$$$
neg121000
     RDKit          3D

 26 28  0  0  0  0  0  0  0  0999 V2000
    2.7980    2.3120   51.1950 C   0  0  0  0  0  0  0  0  0  0  0  0
    0.6870    1.2130   50.8730 C   0  0  0  0  0  0  0  0  0  0  0  0
    3.1160    9.7470   56.7200 C   0  0  0  0  0  0  0  0  0  0  0  0
    5.0140    8.3600   56.1640 C   0  0  0  0  0  0  0  0  0  0  0  0
    3.8300   10.2430   57.8070 C   0  0  0  0  0  0  0  0  0  0  0  0
    5.6860    8.7910   57.2970 C   0  0  0  0  0  0  0  0  0  0  0  0
    3.0700    1.5090   52.2840 C   0  0  0  0  0  0  0  0  0  0  0  0
    0.9340    0.4370   52.0010 C   0  0  0  0  0  0  0  0  0  0  0  0
    1.6130    2.1890   50.4780 C   0  0  0  0  0  0  0  0  0  0  0  0
    3.7120    8.8020   55.8800 C   0  0  0  0  0  0  0  0  0  0  0  0
    5.0790    9.7260   58.1180 C   0  0  0  0  0  0  0  0  0  0  0  0
    2.1270    0.5870   52.7080 C   0  0  0  0  0  0  0  0  0  0  0  0
    1.3770    3.1100   49.3800 C   0  0  0  0  0  0  0  0  0  0  0  0
    2.4700    6.5650   51.0190 C   0  0  0  0  0  0  0  0  0  0  0  0
    1.6290    8.3190   54.3560 C   0  0  0  0  0  0  0  0  0  0  0  0
    3.9170    8.5830   53.5200 C   0  0  0  0  0  0  0  0  0  0  0  0
    1.2910    7.3620   53.1560 C   0  0  0  0  0  0  0  0  0  0  0  0
    3.1300    8.6160   52.2060 C   0  0  0  0  0  0  0  0  0  0  0  0
    1.8700    4.5480   49.4760 C   0  0  0  0  0  0  0  0  0  0  0  0
    1.5720    5.3320   50.8080 C   0  0  0  0  0  0  0  0  0  0  0  0
    3.0860    8.3070   54.7010 N   0  0  0  0  0  0  0  0  0  0  0  0
    2.2880    7.4230   52.0630 N   0  0  0  0  0  0  0  0  0  0  0  0
    0.7980    2.7480   48.3810 O   0  0  0  0  0  0  0  0  0  0  0  0
    3.3470    6.7550   50.1770 O   0  0  0  0  0  0  0  0  0  0  0  0
    5.7070   10.1420   59.2540 O   0  0  0  0  0  0  0  0  0  0  0  0
    2.5030   -0.4040   54.2640 Br  0  0  0  0  0  0  0  0  0  0  0  0
  1  7  2  0
  1  9  1  0
  2  8  1  0
  2  9  2  0
  3  5  2  0
  3 10  1  0
  4  6  1  0
  4 10  2  0
  5 11  1  0
  6 11  2  0
  7 12  1  0
  8 12  2  0
  9 13  1  0
 10 21  1  0
 11 25  1  0
 12 26  1  0
 13 19  1  0
 13 23  2  0
 14 20  1  0
 14 22  1  0
 14 24  2  0
 15 17  1  0
 15 21  1  0
 16 18  1  0
 16 21  1  0
 17 22  1  0
 18 22  1  0
 19 20  1  0
M  END
>  <washed_aromatic_smiles>  (666) 
c1cc(ccc1C(=O)CCC(=O)N2CCN(CC2)c3ccc(cc3)O)Br

>  <name>  (666) 
neg121000

$$$$
neg21824
     RDKit          3D

 25 27  0  0  0  0  0  0  0  0999 V2000
    1.6590    4.3780   50.6590 C   0  0  0  0  0  0  0  0  0  0  0  0
    2.9050    6.3410   50.0950 C   0  0  0  0  0  0  0  0  0  0  0  0
    2.3140    3.6750   49.6580 C   0  0  0  0  0  0  0  0  0  0  0  0
    3.5270    5.6710   49.0870 C   0  0  0  0  0  0  0  0  0  0  0  0
    1.9110    5.7440   50.8740 C   0  0  0  0  0  0  0  0  0  0  0  0
    3.2290    4.3470   48.8520 C   0  0  0  0  0  0  0  0  0  0  0  0
    1.0630    6.5230   51.7810 C   0  0  0  0  0  0  0  0  0  0  0  0
    3.1560    8.9620   55.6170 C   0  0  0  0  0  0  0  0  0  0  0  0
    5.0940   13.0240   53.6150 C   0  0  0  0  0  0  0  0  0  0  0  0
    5.3610   13.3600   55.0810 C   0  0  0  0  0  0  0  0  0  0  0  0
    5.6250   11.6650   53.1780 C   0  0  0  0  0  0  0  0  0  0  0  0
    4.6080   12.5750   56.1430 C   0  0  0  0  0  0  0  0  0  0  0  0
    4.8680   10.5150   53.7980 C   0  0  0  0  0  0  0  0  0  0  0  0
    5.1650   11.1870   56.4120 C   0  0  0  0  0  0  0  0  0  0  0  0
    3.3480    7.5130   53.5050 C   0  0  0  0  0  0  0  0  0  0  0  0
    1.0320    7.9290   54.5720 C   0  0  0  0  0  0  0  0  0  0  0  0
    2.7400    8.3240   52.3980 C   0  0  0  0  0  0  0  0  0  0  0  0
    0.5860    8.4580   53.2210 C   0  0  0  0  0  0  0  0  0  0  0  0
    2.5800    7.8300   54.7870 C   0  0  0  0  0  0  0  0  0  0  0  0
    5.1790   10.1610   55.2590 C   0  0  0  0  0  0  0  0  0  0  0  0
    1.3820    7.8230   52.1990 N   0  0  0  0  0  0  0  0  0  0  0  0
    4.4780    8.9730   55.6410 N   0  0  0  0  0  0  0  0  0  0  0  0
    0.0030    6.0520   52.1930 O   0  0  0  0  0  0  0  0  0  0  0  0
    2.4660    9.7920   56.1970 O   0  0  0  0  0  0  0  0  0  0  0  0
    3.9970    3.6210   47.5220 Cl  0  0  0  0  0  0  0  0  0  0  0  0
  1  3  2  0
  1  5  1  0
  2  4  1  0
  2  5  2  0
  3  6  1  0
  4  6  2  0
  5  7  1  0
  6 25  1  0
  7 21  1  0
  7 23  2  0
  8 19  1  0
  8 22  1  0
  8 24  2  0
  9 10  1  0
  9 11  1  0
 10 12  1  0
 11 13  1  0
 12 14  1  0
 13 20  1  0
 14 20  1  0
 15 17  1  0
 15 19  1  0
 16 18  1  0
 16 19  1  0
 17 21  1  0
 18 21  1  0
 20 22  1  0
M  END
>  <washed_aromatic_smiles>  (667) 
c1cc(ccc1C(=O)N2CCC(CC2)C(=O)NC3CCCCCC3)Cl

>  <name>  (667) 
neg21824

$$$$
neg119715
     RDKit          3D

 28 31  0  0  0  0  0  0  0  0999 V2000
    2.2450    4.6980   48.5820 C   0  0  0  0  0  0  0  0  0  0  0  0
    2.6910    3.7150   50.7330 C   0  0  0  0  0  0  0  0  0  0  0  0
    1.7850    3.4950   48.1160 C   0  0  0  0  0  0  0  0  0  0  0  0
    2.3170    2.4920   50.2530 C   0  0  0  0  0  0  0  0  0  0  0  0
    2.7510   -1.3820   52.1490 C   0  0  0  0  0  0  0  0  0  0  0  0
    2.1630   -1.1640   50.9140 C   0  0  0  0  0  0  0  0  0  0  0  0
    0.6770    0.4420   51.8980 C   0  0  0  0  0  0  0  0  0  0  0  0
    2.6390    4.8550   49.9190 C   0  0  0  0  0  0  0  0  0  0  0  0
    1.7010    2.3690   48.9720 C   0  0  0  0  0  0  0  0  0  0  0  0
    2.4160   -0.6130   53.2190 C   0  0  0  0  0  0  0  0  0  0  0  0
    1.3840    0.2920   53.0950 C   0  0  0  0  0  0  0  0  0  0  0  0
    1.1230   -0.2560   50.7660 C   0  0  0  0  0  0  0  0  0  0  0  0
    2.9410    6.1510   50.4310 C   0  0  0  0  0  0  0  0  0  0  0  0
    0.5390    8.3960   53.0270 C   0  0  0  0  0  0  0  0  0  0  0  0
    0.1570    6.9500   52.7370 C   0  0  0  0  0  0  0  0  0  0  0  0
    2.0050    8.3540   53.4340 C   0  0  0  0  0  0  0  0  0  0  0  0
    0.9520    6.2400   51.6700 C   0  0  0  0  0  0  0  0  0  0  0  0
    2.9000    7.7340   52.3550 C   0  0  0  0  0  0  0  0  0  0  0  0
    3.3050    0.4290   55.2250 C   0  0  0  0  0  0  0  0  0  0  0  0
    2.3500    1.5370   54.8530 C   0  0  0  0  0  0  0  0  0  0  0  0
    2.3860    6.5260   51.6510 N   0  0  0  0  0  0  0  0  0  0  0  0
    1.0130    1.3370   48.5430 N   0  0  0  0  0  0  0  0  0  0  0  0
    3.5650    6.9750   49.7670 O   0  0  0  0  0  0  0  0  0  0  0  0
   -0.9690    0.0160   49.2510 O   0  0  0  0  0  0  0  0  0  0  0  0
    0.9520   -1.1210   48.3080 O   0  0  0  0  0  0  0  0  0  0  0  0
    3.1620   -0.7310   54.3740 O   0  0  0  0  0  0  0  0  0  0  0  0
    1.1660    1.0380   54.1740 O   0  0  0  0  0  0  0  0  0  0  0  0
    0.4470   -0.0610   49.1210 S   0  0  2  0  0  0  0  0  0  0  0  0
  1  3  2  0
  1  8  1  0
  2  4  1  0
  2  8  2  0
  3  9  1  0
  4  9  2  0
  5  6  2  0
  5 10  1  0
  6 12  1  0
  7 11  1  0
  7 12  2  0
  8 13  1  0
  9 22  1  0
 10 11  2  0
 10 26  1  0
 11 27  1  0
 12 28  1  0
 13 21  1  0
 13 23  2  0
 14 15  1  0
 14 16  1  0
 15 17  1  0
 16 18  1  0
 17 21  1  0
 18 21  1  0
 19 20  1  0
 19 26  1  0
 20 27  1  0
 22 28  2  0
 24 28  2  0
 28 25  1  6
M  CHG  1  25  -1
M  END
>  <washed_aromatic_smiles>  (668) 
c1cc(ccc1C(=O)N2CCCCC2)NS(=O)(=O)c3ccc4c(c3)OCCO4

>  <name>  (668) 
neg119715

$$$$
neg155144
     RDKit          3D

 27 30  0  0  0  0  0  0  0  0999 V2000
    1.8450    1.3840   49.7100 C   0  0  0  0  0  0  0  0  0  0  0  0
    0.9620    2.1930   47.6040 C   0  0  0  0  0  0  0  0  0  0  0  0
    0.9500    0.3210   49.6710 C   0  0  0  0  0  0  0  0  0  0  0  0
    0.0930    1.1250   47.5370 C   0  0  0  0  0  0  0  0  0  0  0  0
    3.1230    6.5880   53.5100 C   0  0  0  0  0  0  0  0  0  0  0  0
    3.4570    7.1210   54.7220 C   0  0  0  0  0  0  0  0  0  0  0  0
    1.8510    2.3280   48.6690 C   0  0  0  0  0  0  0  0  0  0  0  0
    0.0910    0.2200   48.5820 C   0  0  0  0  0  0  0  0  0  0  0  0
    2.4170    7.3700   52.6110 C   0  0  0  0  0  0  0  0  0  0  0  0
    3.3050    8.4720   54.9450 C   0  0  0  0  0  0  0  0  0  0  0  0
    2.7570    3.4600   48.6480 C   0  0  0  0  0  0  0  0  0  0  0  0
    1.3280    5.5000   51.5130 C   0  0  0  0  0  0  0  0  0  0  0  0
    3.2190    6.6120   50.5670 C   0  0  0  0  0  0  0  0  0  0  0  0
    1.2930    4.6340   50.2500 C   0  0  0  0  0  0  0  0  0  0  0  0
    3.2560    5.7300   49.3290 C   0  0  0  0  0  0  0  0  0  0  0  0
    4.8040    8.1680   56.9350 C   0  0  0  0  0  0  0  0  0  0  0  0
    3.2470   10.0240   56.9050 C   0  0  0  0  0  0  0  0  0  0  0  0
    5.6820    8.9320   57.9260 C   0  0  0  0  0  0  0  0  0  0  0  0
    4.2110   10.7470   57.8660 C   0  0  0  0  0  0  0  0  0  0  0  0
    2.1650    8.6710   52.8980 N   0  0  0  0  0  0  0  0  0  0  0  0
    2.6250    9.2170   54.0460 N   0  0  0  0  0  0  0  0  0  0  0  0
    2.0170    6.7860   51.3820 N   0  0  0  0  0  0  0  0  0  0  0  0
    3.9450    9.0390   56.0890 N   0  0  0  0  0  0  0  0  0  0  0  0
    2.5560    4.4880   49.5340 N   0  0  0  0  0  0  0  0  0  0  0  0
    3.6600    3.5550   47.8190 O   0  0  0  0  0  0  0  0  0  0  0  0
    4.9260    9.8420   58.6960 O   0  0  0  0  0  0  0  0  0  0  0  0
   -0.8020   -0.7550   48.5230 F   0  0  0  0  0  0  0  0  0  0  0  0
  1  3  2  0
  1  7  1  0
  2  4  1  0
  2  7  2  0
  3  8  1  0
  4  8  2  0
  5  6  2  0
  5  9  1  0
  6 10  1  0
  7 11  1  0
  8 27  1  0
  9 20  2  0
  9 22  1  0
 10 21  2  0
 10 23  1  0
 11 24  1  0
 11 25  2  0
 12 14  1  0
 12 22  1  0
 13 15  1  0
 13 22  1  0
 14 24  1  0
 15 24  1  0
 16 18  1  0
 16 23  1  0
 17 19  1  0
 17 23  1  0
 18 26  1  0
 19 26  1  0
 20 21  1  0
M  END
>  <washed_aromatic_smiles>  (669) 
c1cc(ccc1C(=O)N2CCN(CC2)c3ccc(nn3)N4CCOCC4)F

>  <name>  (669) 
neg155144

$$$$
neg99500
     RDKit          3D

 26 28  0  0  0  0  0  0  0  0999 V2000
    5.1580   -0.9640   56.8910 C   0  0  0  0  0  0  0  0  0  0  0  0
    4.6280    1.2350   57.7450 C   0  0  0  0  0  0  0  0  0  0  0  0
    5.8760   -1.2390   58.0500 C   0  0  0  0  0  0  0  0  0  0  0  0
    5.3400    0.9680   58.9070 C   0  0  0  0  0  0  0  0  0  0  0  0
    1.3240    3.8770   47.8770 C   0  0  0  0  0  0  0  0  0  0  0  0
    2.7510    3.6220   49.7990 C   0  0  0  0  0  0  0  0  0  0  0  0
    0.8210    2.5910   48.0670 C   0  0  0  0  0  0  0  0  0  0  0  0
    2.2540    2.3420   49.9860 C   0  0  0  0  0  0  0  0  0  0  0  0
    4.4700    0.2560   56.7480 C   0  0  0  0  0  0  0  0  0  0  0  0
    5.9290   -0.2790   59.0510 C   0  0  0  0  0  0  0  0  0  0  0  0
    2.3110    4.3530   48.7190 C   0  0  0  0  0  0  0  0  0  0  0  0
    1.2800    1.8030   49.1250 C   0  0  0  0  0  0  0  0  0  0  0  0
    3.5510    0.5210   55.6320 C   0  0  0  0  0  0  0  0  0  0  0  0
    1.1950    0.1950   53.4450 C   0  0  0  0  0  0  0  0  0  0  0  0
    2.6230   -1.3440   52.4480 C   0  0  0  0  0  0  0  0  0  0  0  0
    0.5950    0.5330   52.0640 C   0  0  0  0  0  0  0  0  0  0  0  0
    2.3880   -0.8610   51.0360 C   0  0  0  0  0  0  0  0  0  0  0  0
    2.6700   -0.1640   53.4100 C   0  0  0  0  0  0  0  0  0  0  0  0
    1.0840   -0.2550   50.9030 N   0  0  0  0  0  0  0  0  0  0  0  0
    3.2310   -0.4760   54.7310 N   0  0  0  0  0  0  0  0  0  0  0  0
    3.0080    1.6110   55.4890 O   0  0  0  0  0  0  0  0  0  0  0  0
   -0.8440    0.2620   49.4450 O   0  0  0  0  0  0  0  0  0  0  0  0
    1.0830   -0.7350   48.4220 O   0  0  0  0  0  0  0  0  0  0  0  0
    6.5810   -0.5700   60.2070 F   0  0  0  0  0  0  0  0  0  0  0  0
    2.8890    5.5470   48.4880 F   0  0  0  0  0  0  0  0  0  0  0  0
    0.5640    0.1610   49.3980 S   0  0  0  0  0  0  0  0  0  0  0  0
  1  3  2  0
  1  9  1  0
  2  4  1  0
  2  9  2  0
  3 10  1  0
  4 10  2  0
  5  7  2  0
  5 11  1  0
  6  8  1  0
  6 11  2  0
  7 12  1  0
  8 12  2  0
  9 13  1  0
 10 24  1  0
 11 25  1  0
 12 26  1  0
 13 20  1  0
 13 21  2  0
 14 16  1  0
 14 18  1  0
 15 17  1  0
 15 18  1  0
 16 19  1  0
 17 19  1  0
 18 20  1  0
 19 26  1  0
 22 26  2  0
 23 26  2  0
M  END
>  <washed_aromatic_smiles>  (670) 
c1cc(ccc1C(=O)NC2CCN(CC2)S(=O)(=O)c3ccc(cc3)F)F

>  <name>  (670) 
neg99500

$$$$
neg134637
     RDKit          3D

 30 33  0  0  0  0  0  0  0  0999 V2000
    4.0520    6.7800   53.3430 C   0  0  0  0  0  0  0  0  0  0  0  0
    2.2160    7.9070   52.3800 C   0  0  0  0  0  0  0  0  0  0  0  0
    4.5190    7.9400   53.9140 C   0  0  0  0  0  0  0  0  0  0  0  0
    2.6920    9.1140   52.9190 C   0  0  0  0  0  0  0  0  0  0  0  0
    3.0060    6.7640   52.4780 C   0  0  0  0  0  0  0  0  0  0  0  0
    3.9010    9.1470   53.6370 C   0  0  0  0  0  0  0  0  0  0  0  0
    3.1190    5.5890   51.6400 C   0  0  0  0  0  0  0  0  0  0  0  0
    1.7700    4.7820   48.1040 C   0  0  0  0  0  0  0  0  0  0  0  0
    2.2840    3.3710   47.8350 C   0  0  0  0  0  0  0  0  0  0  0  0
    1.1280    4.9310   49.4600 C   0  0  0  0  0  0  0  0  0  0  0  0
   -0.4890    0.1440   49.2400 C   0  0  0  0  0  0  0  0  0  0  0  0
    0.7780   -0.6560   49.2980 C   0  0  0  0  0  0  0  0  0  0  0  0
   -0.8210    0.5690   50.6820 C   0  0  0  0  0  0  0  0  0  0  0  0
    5.1730    9.8600   58.0380 C   0  0  0  0  0  0  0  0  0  0  0  0
    4.9710   11.3620   58.0440 C   0  0  0  0  0  0  0  0  0  0  0  0
    2.9880    2.8730   49.1020 C   0  0  0  0  0  0  0  0  0  0  0  0
    1.1960    3.6630   50.2740 C   0  0  0  0  0  0  0  0  0  0  0  0
    1.8750    0.2480   49.7820 C   0  0  0  0  0  0  0  0  0  0  0  0
    0.3190    1.1890   51.4750 C   0  0  0  0  0  0  0  0  0  0  0  0
    4.9070    9.4420   56.6000 C   0  0  0  0  0  0  0  0  0  0  0  0
    5.0520   11.7920   56.5780 C   0  0  0  0  0  0  0  0  0  0  0  0
    2.2520    2.6670   50.4630 C   0  0  0  0  0  0  0  0  0  0  0  0
    2.9670    2.9970   51.7560 C   0  0  0  0  0  0  0  0  0  0  0  0
    1.6650    1.2590   50.7960 N   0  0  0  0  0  0  0  0  0  0  0  0
    4.6200   10.6420   55.7980 N   0  0  0  0  0  0  0  0  0  0  0  0
    2.8910    4.3850   52.2530 N   0  0  0  0  0  0  0  0  0  0  0  0
    3.6580    5.6280   50.5420 O   0  0  0  0  0  0  0  0  0  0  0  0
    6.2310   10.3180   53.8820 O   0  0  0  0  0  0  0  0  0  0  0  0
    4.3420   11.7650   53.5250 O   0  0  0  0  0  0  0  0  0  0  0  0
    4.8560   10.5910   54.1460 S   0  0  0  0  0  0  0  0  0  0  0  0
  1  3  2  0
  1  5  1  0
  2  4  1  0
  2  5  2  0
  3  6  1  0
  4  6  2  0
  5  7  1  0
  6 30  1  0
  7 26  1  0
  7 27  2  0
  8  9  1  0
  8 10  1  0
  9 16  1  0
 10 17  1  0
 11 12  1  0
 11 13  1  0
 12 18  1  0
 13 19  1  0
 14 15  1  0
 14 20  1  0
 15 21  1  0
 16 22  1  0
 17 22  1  0
 18 24  1  0
 19 24  1  0
 20 25  1  0
 21 25  1  0
 22 23  1  0
 22 24  1  0
 23 26  1  0
 25 30  1  0
 28 30  2  0
 29 30  2  0
M  CHG  1  24   1
M  END
>  <washed_aromatic_smiles>  (671) 
c1cc(ccc1C(=O)NCC2(CCCCC2)N3CCCCC3)S(=O)(=O)N4CCCC4

>  <name>  (671) 
neg134637

$$$$
neg229877
     RDKit          3D

 29 31  0  0  0  0  0  0  0  0999 V2000
    4.3650    8.0780   54.3270 C   0  0  0  0  0  0  0  0  0  0  0  0
    2.0300    8.4140   54.8070 C   0  0  0  0  0  0  0  0  0  0  0  0
    0.9120    0.1570   52.1330 C   0  0  0  0  0  0  0  0  0  0  0  0
    3.0800    0.6830   51.2860 C   0  0  0  0  0  0  0  0  0  0  0  0
    4.7150    8.6650   55.5300 C   0  0  0  0  0  0  0  0  0  0  0  0
    2.3750    9.0000   56.0230 C   0  0  0  0  0  0  0  0  0  0  0  0
    1.4250    0.1470   53.4220 C   0  0  0  0  0  0  0  0  0  0  0  0
    3.5380    0.8750   52.5720 C   0  0  0  0  0  0  0  0  0  0  0  0
    3.0250    7.9600   53.9310 C   0  0  0  0  0  0  0  0  0  0  0  0
    1.7300    0.4490   51.0400 C   0  0  0  0  0  0  0  0  0  0  0  0
    3.7200    9.1490   56.3740 C   0  0  0  0  0  0  0  0  0  0  0  0
    2.7210    0.5770   53.6570 C   0  0  0  0  0  0  0  0  0  0  0  0
    2.7240    7.4970   52.5820 C   0  0  0  0  0  0  0  0  0  0  0  0
    2.8310    5.4510   50.0870 C   0  0  0  0  0  0  0  0  0  0  0  0
    3.4340    3.7960   48.2000 C   0  0  0  0  0  0  0  0  0  0  0  0
    1.1990    4.5870   48.2870 C   0  0  0  0  0  0  0  0  0  0  0  0
    2.9520    2.5450   48.9800 C   0  0  0  0  0  0  0  0  0  0  0  0
    0.8550    3.2150   48.8650 C   0  0  0  0  0  0  0  0  0  0  0  0
    2.6090    5.0060   48.6290 C   0  0  0  0  0  0  0  0  0  0  0  0
    1.6290    2.0650   48.7010 N   0  0  0  0  0  0  0  0  0  0  0  0
    2.0290    6.3300   52.3270 N   0  0  0  0  0  0  0  0  0  0  0  0
    1.8040    5.8160   50.9310 N   0  0  0  0  0  0  0  0  0  0  0  0
    3.1060    8.1540   51.6310 O   0  0  0  0  0  0  0  0  0  0  0  0
    3.9600    5.5050   50.5120 O   0  0  0  0  0  0  0  0  0  0  0  0
    1.2620   -0.5190   48.6330 O   0  0  0  0  0  0  0  0  0  0  0  0
   -0.4090    0.8150   49.6740 O   0  0  0  0  0  0  0  0  0  0  0  0
    0.9710    0.6280   49.4170 S   0  0  0  0  0  0  0  0  0  0  0  0
    4.1780    9.9550   57.8390 Cl  0  0  0  0  0  0  0  0  0  0  0  0
    3.2810    0.7320   55.2890 Cl  0  0  0  0  0  0  0  0  0  0  0  0
  1  5  2  0
  1  9  1  0
  2  6  1  0
  2  9  2  0
  3  7  2  0
  3 10  1  0
  4  8  1  0
  4 10  2  0
  5 11  1  0
  6 11  2  0
  7 12  1  0
  8 12  2  0
  9 13  1  0
 10 27  1  0
 11 28  1  0
 12 29  1  0
 13 21  1  0
 13 23  2  0
 14 19  1  0
 14 22  1  0
 14 24  2  0
 15 17  1  0
 15 19  1  0
 16 18  1  0
 16 19  1  0
 17 20  1  0
 18 20  1  0
 20 27  1  0
 21 22  1  0
 25 27  2  0
 26 27  2  0
M  END
>  <washed_aromatic_smiles>  (672) 
c1cc(ccc1C(=O)NNC(=O)C2CCN(CC2)S(=O)(=O)c3ccc(cc3)Cl)Cl

>  <name>  (672) 
neg229877

$$$$
neg138526
     RDKit          3D

 28 30  0  0  0  0  0  0  0  0999 V2000
    1.2250    2.5480   51.0160 C   0  0  0  0  0  0  0  0  0  0  0  0
    2.9840    1.5480   49.8680 C   0  0  0  0  0  0  0  0  0  0  0  0
    1.0830    1.4050   51.7890 C   0  0  0  0  0  0  0  0  0  0  0  0
    3.0080    0.4850   50.7590 C   0  0  0  0  0  0  0  0  0  0  0  0
    2.2160    2.6720   50.0750 C   0  0  0  0  0  0  0  0  0  0  0  0
    2.0870    0.4620   51.7910 C   0  0  0  0  0  0  0  0  0  0  0  0
    2.5130    3.9020   49.3410 C   0  0  0  0  0  0  0  0  0  0  0  0
    2.8740    5.9040   52.3310 C   0  0  0  0  0  0  0  0  0  0  0  0
    4.0620   10.0800   53.2840 C   0  0  0  0  0  0  0  0  0  0  0  0
    4.5560    9.5830   54.6360 C   0  0  0  0  0  0  0  0  0  0  0  0
    2.6290    9.5910   53.0520 C   0  0  0  0  0  0  0  0  0  0  0  0
    4.6760    8.0620   54.6680 C   0  0  0  0  0  0  0  0  0  0  0  0
    2.5030    8.2690   52.3360 C   0  0  0  0  0  0  0  0  0  0  0  0
    3.3930    7.2250   54.4120 C   0  0  0  0  0  0  0  0  0  0  0  0
    2.5690    1.4970   54.7290 C   0  0  0  0  0  0  0  0  0  0  0  0
    3.6880   -0.5430   55.4090 C   0  0  0  0  0  0  0  0  0  0  0  0
    2.9350    2.0950   56.1120 C   0  0  0  0  0  0  0  0  0  0  0  0
    4.4080    0.3040   56.4740 C   0  0  0  0  0  0  0  0  0  0  0  0
    1.9350    5.7490   51.1280 C   0  0  0  0  0  0  0  0  0  0  0  0
    2.9540    7.0820   53.0040 N   0  0  0  0  0  0  0  0  0  0  0  0
    3.1210    0.2110   54.3000 N   0  0  0  0  0  0  0  0  0  0  0  0
    2.8820    3.8850   48.1800 O   0  0  0  0  0  0  0  0  0  0  0  0
    3.4320    4.9080   52.7570 O   0  0  0  0  0  0  0  0  0  0  0  0
    0.9320   -0.8670   53.7030 O   0  0  0  0  0  0  0  0  0  0  0  0
    2.9390   -1.7770   52.7450 O   0  0  0  0  0  0  0  0  0  0  0  0
    3.5120    1.2160   57.0550 O   0  0  0  0  0  0  0  0  0  0  0  0
    2.4860    5.1360   49.9150 O   0  0  0  0  0  0  0  0  0  0  0  0
    2.2270   -0.6380   53.1750 S   0  0  0  0  0  0  0  0  0  0  0  0
  1  3  2  0
  1  5  1  0
  2  4  1  0
  2  5  2  0
  3  6  1  0
  4  6  2  0
  5  7  1  0
  6 28  1  0
  7 22  2  0
  7 27  1  0
  8 19  1  0
  8 20  1  0
  8 23  2  0
  9 10  1  0
  9 11  1  0
 10 12  1  0
 11 13  1  0
 12 14  1  0
 13 20  1  0
 14 20  1  0
 15 17  1  0
 15 21  1  0
 16 18  1  0
 16 21  1  0
 17 26  1  0
 18 26  1  0
 19 27  1  0
 21 28  1  0
 24 28  2  0
 25 28  2  0
M  END
>  <washed_aromatic_smiles>  (673) 
c1cc(ccc1C(=O)OCC(=O)N2CCCCCC2)S(=O)(=O)N3CCOCC3

>  <name>  (673) 
neg138526

$$$$
neg54426
     RDKit          3D

 25 27  0  0  0  0  0  0  0  0999 V2000
    2.7420    4.1860   51.8760 C   0  0  0  0  0  0  0  0  0  0  0  0
    3.0240    4.7110   49.5520 C   0  0  0  0  0  0  0  0  0  0  0  0
    4.3300    9.0310   57.1990 C   0  0  0  0  0  0  0  0  0  0  0  0
    4.5730   11.0080   55.7930 C   0  0  0  0  0  0  0  0  0  0  0  0
    2.8650    5.5250   52.2060 C   0  0  0  0  0  0  0  0  0  0  0  0
    3.1510    6.0560   49.8810 C   0  0  0  0  0  0  0  0  0  0  0  0
    4.8540    9.7380   58.2770 C   0  0  0  0  0  0  0  0  0  0  0  0
    5.0790   11.7170   56.8760 C   0  0  0  0  0  0  0  0  0  0  0  0
    2.7390    3.7530   50.5420 C   0  0  0  0  0  0  0  0  0  0  0  0
    4.1700    9.6730   55.9650 C   0  0  0  0  0  0  0  0  0  0  0  0
    2.9940    6.4640   51.2030 C   0  0  0  0  0  0  0  0  0  0  0  0
    5.1960   11.0740   58.1030 C   0  0  0  0  0  0  0  0  0  0  0  0
    2.5030    2.3170   50.2880 C   0  0  0  0  0  0  0  0  0  0  0  0
    3.6160    9.1160   53.5720 C   0  0  0  0  0  0  0  0  0  0  0  0
    0.4160    1.8090   47.1450 C   0  0  0  0  0  0  0  0  0  0  0  0
    0.3750    0.4520   47.8300 C   0  0  0  0  0  0  0  0  0  0  0  0
    1.2820    2.7040   48.0390 C   0  0  0  0  0  0  0  0  0  0  0  0
    0.9590    0.6810   49.2180 C   0  0  0  0  0  0  0  0  0  0  0  0
    2.5350    8.4510   52.7410 C   0  0  0  0  0  0  0  0  0  0  0  0
    1.7840    1.8920   49.1500 N   0  0  0  0  0  0  0  0  0  0  0  0
    3.5140    8.9370   54.9360 N   0  0  0  0  0  0  0  0  0  0  0  0
    4.4870    9.8230   53.0970 O   0  0  0  0  0  0  0  0  0  0  0  0
    3.0210    7.8000   51.5280 O   0  0  0  0  0  0  0  0  0  0  0  0
    5.6660   11.7740   59.1600 F   0  0  0  0  0  0  0  0  0  0  0  0
    3.0380    1.1280   51.3630 S   0  0  0  0  0  0  0  0  0  0  0  0
  1  5  2  0
  1  9  1  0
  2  6  1  0
  2  9  2  0
  3  7  2  0
  3 10  1  0
  4  8  1  0
  4 10  2  0
  5 11  1  0
  6 11  2  0
  7 12  1  0
  8 12  2  0
  9 13  1  0
 10 21  1  0
 11 23  1  0
 12 24  1  0
 13 20  1  0
 13 25  2  0
 14 19  1  0
 14 21  1  0
 14 22  2  0
 15 16  1  0
 15 17  1  0
 16 18  1  0
 17 20  1  0
 18 20  1  0
 19 23  1  0
M  END
>  <washed_aromatic_smiles>  (674) 
c1cc(ccc1C(=S)N2CCCC2)OCC(=O)Nc3ccc(cc3)F

>  <name>  (674) 
neg54426

$$$$
neg203292
     RDKit          3D

 36 38  0  0  0  0  0  0  0  0999 V2000
    1.8060   -0.7830   50.2840 C   0  0  0  0  0  0  0  0  0  0  0  0
    0.2440    0.5690   51.5390 C   0  0  0  0  0  0  0  0  0  0  0  0
    5.4550   10.6340   53.8330 C   0  0  0  0  0  0  0  0  0  0  0  0
    4.8250   12.1120   55.6580 C   0  0  0  0  0  0  0  0  0  0  0  0
    0.9860   -0.7270   49.1690 C   0  0  0  0  0  0  0  0  0  0  0  0
   -0.6000    0.5970   50.4410 C   0  0  0  0  0  0  0  0  0  0  0  0
    5.6670   11.7260   53.0150 C   0  0  0  0  0  0  0  0  0  0  0  0
    5.0150   13.2090   54.8360 C   0  0  0  0  0  0  0  0  0  0  0  0
    1.4460   -0.1430   51.4740 C   0  0  0  0  0  0  0  0  0  0  0  0
    5.0390   10.8170   55.1580 C   0  0  0  0  0  0  0  0  0  0  0  0
   -0.2090   -0.0420   49.2680 C   0  0  0  0  0  0  0  0  0  0  0  0
    5.4270   12.9910   53.5290 C   0  0  0  0  0  0  0  0  0  0  0  0
    2.2920   -0.3320   52.6230 C   0  0  0  0  0  0  0  0  0  0  0  0
    4.8560    9.6500   55.9750 C   0  0  0  0  0  0  0  0  0  0  0  0
    2.3240    0.4350   53.7390 C   0  0  0  0  0  0  0  0  0  0  0  0
    4.9810    9.6280   57.3210 C   0  0  0  0  0  0  0  0  0  0  0  0
    3.1660    0.0460   54.8360 C   0  0  0  0  0  0  0  0  0  0  0  0
    4.8620    8.3900   58.0340 C   0  0  0  0  0  0  0  0  0  0  0  0
    6.4960    1.8090   61.2710 C   0  0  0  0  0  0  0  0  0  0  0  0
    6.7160    2.9650   59.1410 C   0  0  0  0  0  0  0  0  0  0  0  0
    6.6100    3.1480   62.0190 C   0  0  0  0  0  0  0  0  0  0  0  0
    6.6530    4.3070   59.8000 C   0  0  0  0  0  0  0  0  0  0  0  0
    4.4340    1.2590   58.1020 C   0  0  0  0  0  0  0  0  0  0  0  0
    6.4830    6.8910   61.0760 C   0  0  0  0  0  0  0  0  0  0  0  0
    5.5040    0.8370   59.1100 C   0  0  0  0  0  0  0  0  0  0  0  0
    6.3950    5.5620   61.8570 C   0  0  0  0  0  0  0  0  0  0  0  0
    4.5460    0.5300   56.7890 C   0  0  0  0  0  0  0  0  0  0  0  0
    5.5200    7.0180   59.8920 C   0  0  0  0  0  0  0  0  0  0  0  0
    5.9090    1.9990   59.9150 N   0  0  0  0  0  0  0  0  0  0  0  0
    7.0230    4.3620   61.2300 N   0  0  0  0  0  0  0  0  0  0  0  0
    3.4860    0.9040   55.8480 N   0  0  0  0  0  0  0  0  0  0  0  0
    5.3080    8.3290   59.3270 N   0  0  0  0  0  0  0  0  0  0  0  0
    3.6430   -1.0710   54.8760 O   0  0  0  0  0  0  0  0  0  0  0  0
    4.4260    7.3680   57.5000 O   0  0  0  0  0  0  0  0  0  0  0  0
   -1.0210   -0.0660   48.1950 F   0  0  0  0  0  0  0  0  0  0  0  0
    5.6020   14.0430   52.7400 F   0  0  0  0  0  0  0  0  0  0  0  0
  1  5  2  0
  1  9  1  0
  2  6  1  0
  2  9  2  0
  3  7  2  0
  3 10  1  0
  4  8  1  0
  4 10  2  0
  5 11  1  0
  6 11  2  0
  7 12  1  0
  8 12  2  0
  9 13  1  0
 10 14  1  0
 11 35  1  0
 12 36  1  0
 13 15  2  0
 14 16  2  0
 15 17  1  0
 16 18  1  0
 17 31  1  0
 17 33  2  0
 18 32  1  0
 18 34  2  0
 19 21  1  0
 19 29  1  0
 20 22  1  0
 20 29  1  0
 21 30  1  0
 22 30  1  0
 23 25  1  0
 23 27  1  0
 24 26  1  0
 24 28  1  0
 25 29  1  0
 26 30  1  0
 27 31  1  0
 28 32  1  0
M  CHG  1  29   1
M  END
>  <washed_aromatic_smiles>  (675) 
c1c(ccc(c1)F)/C=C/C(=O)NCCCN2CCN(CC2)CCCNC(=O)/C=C/c3ccc(cc3)F

>  <name>  (675) 
neg203292

$$$$
neg253405
     RDKit          3D

 30 33  0  0  0  0  0  0  0  0999 V2000
    5.2600   11.1380   58.6160 C   0  0  0  0  0  0  0  0  0  0  0  0
    2.6140   -0.4270   54.4920 C   0  0  0  0  0  0  0  0  0  0  0  0
    5.1300   11.7730   57.3850 C   0  0  0  0  0  0  0  0  0  0  0  0
    5.2220    9.7470   58.6900 C   0  0  0  0  0  0  0  0  0  0  0  0
    2.6420    0.9590   54.4690 C   0  0  0  0  0  0  0  0  0  0  0  0
    2.7970   -1.1370   53.3130 C   0  0  0  0  0  0  0  0  0  0  0  0
    0.6190    7.7410   53.1270 C   0  0  0  0  0  0  0  0  0  0  0  0
    4.9410   11.0220   56.2330 C   0  0  0  0  0  0  0  0  0  0  0  0
    5.0260    8.9930   57.5400 C   0  0  0  0  0  0  0  0  0  0  0  0
    1.0630    7.0280   52.0220 C   0  0  0  0  0  0  0  0  0  0  0  0
    2.8750    1.6110   53.2660 C   0  0  0  0  0  0  0  0  0  0  0  0
    2.9870   -0.4940   52.1120 C   0  0  0  0  0  0  0  0  0  0  0  0
    1.4750    8.0110   54.1790 C   0  0  0  0  0  0  0  0  0  0  0  0
    3.2390    6.8040   53.0320 C   0  0  0  0  0  0  0  0  0  0  0  0
    4.8680    9.6250   56.3000 C   0  0  0  0  0  0  0  0  0  0  0  0
    2.3940    6.5990   51.9340 C   0  0  0  0  0  0  0  0  0  0  0  0
    3.0580    0.8800   52.0990 C   0  0  0  0  0  0  0  0  0  0  0  0
    2.7840    7.5430   54.1230 C   0  0  0  0  0  0  0  0  0  0  0  0
    2.8980    6.0260   50.6820 C   0  0  0  0  0  0  0  0  0  0  0  0
    4.5880    8.8590   55.0950 C   0  0  0  0  0  0  0  0  0  0  0  0
    1.3380    4.1530   50.6580 C   0  0  0  0  0  0  0  0  0  0  0  0
    3.0610    4.2690   48.9900 C   0  0  0  0  0  0  0  0  0  0  0  0
    1.2810    2.5960   50.6280 C   0  0  0  0  0  0  0  0  0  0  0  0
    2.7830    2.7850   48.7150 C   0  0  0  0  0  0  0  0  0  0  0  0
    3.4120    1.5560   50.8270 C   0  0  0  0  0  0  0  0  0  0  0  0
    2.6190    4.7240   50.3130 N   0  0  0  0  0  0  0  0  0  0  0  0
    2.3380    1.9260   49.8850 N   0  0  0  0  0  0  0  0  0  0  0  0
    3.6270    7.8740   55.2000 N   0  0  0  0  0  0  0  0  0  0  0  0
    3.5470    6.6960   49.8890 O   0  0  0  0  0  0  0  0  0  0  0  0
    5.1040    9.0980   54.0100 O   0  0  0  0  0  0  0  0  0  0  0  0
  1  3  2  0
  1  4  1  0
  2  5  2  0
  2  6  1  0
  3  8  1  0
  4  9  2  0
  5 11  1  0
  6 12  2  0
  7 10  2  0
  7 13  1  0
  8 15  2  0
  9 15  1  0
 10 16  1  0
 11 17  2  0
 12 17  1  0
 13 18  2  0
 14 16  2  0
 14 18  1  0
 15 20  1  0
 16 19  1  0
 17 25  1  0
 18 28  1  0
 19 26  1  0
 19 29  2  0
 20 28  1  0
 20 30  2  0
 21 23  1  0
 21 26  1  0
 22 24  1  0
 22 26  1  0
 23 27  1  0
 24 27  1  0
 25 27  1  0
M  CHG  1  27   1
M  END
>  <washed_aromatic_smiles>  (676) 
c1ccc(cc1)CN2CCN(CC2)C(=O)c3cccc(c3)NC(=O)c4ccccc4

>  <name>  (676) 
neg253405

$$$$
neg54544
     RDKit          3D

 30 33  0  0  0  0  0  0  0  0999 V2000
    2.8100    1.4020   53.8790 C   0  0  0  0  0  0  0  0  0  0  0  0
    1.0750    8.5710   55.0960 C   0  0  0  0  0  0  0  0  0  0  0  0
    3.7030    1.1760   52.8380 C   0  0  0  0  0  0  0  0  0  0  0  0
    1.5370    0.8710   53.8090 C   0  0  0  0  0  0  0  0  0  0  0  0
    0.6220    1.4650   45.9880 C   0  0  0  0  0  0  0  0  0  0  0  0
    2.4350    8.3110   55.1000 C   0  0  0  0  0  0  0  0  0  0  0  0
    0.3220    8.3730   53.9500 C   0  0  0  0  0  0  0  0  0  0  0  0
    0.9650    0.1390   46.1970 C   0  0  0  0  0  0  0  0  0  0  0  0
    3.3530    0.3500   51.7980 C   0  0  0  0  0  0  0  0  0  0  0  0
    1.1450    0.1070   52.7400 C   0  0  0  0  0  0  0  0  0  0  0  0
    0.6740    2.3460   47.0560 C   0  0  0  0  0  0  0  0  0  0  0  0
    3.0170    7.7650   53.9740 C   0  0  0  0  0  0  0  0  0  0  0  0
    0.9010    7.8240   52.8160 C   0  0  0  0  0  0  0  0  0  0  0  0
    1.0750   -0.3510   47.4890 C   0  0  0  0  0  0  0  0  0  0  0  0
    2.0500   -0.1150   51.7220 C   0  0  0  0  0  0  0  0  0  0  0  0
    1.1510    1.9030   48.2810 C   0  0  0  0  0  0  0  0  0  0  0  0
    2.2510    7.4980   52.8410 C   0  0  0  0  0  0  0  0  0  0  0  0
    0.9870    0.5490   48.5390 C   0  0  0  0  0  0  0  0  0  0  0  0
    2.0310    2.7530   49.0760 C   0  0  0  0  0  0  0  0  0  0  0  0
    1.6040   -0.6290   50.4850 C   0  0  0  0  0  0  0  0  0  0  0  0
    3.4650    4.7410   48.6270 C   0  0  0  0  0  0  0  0  0  0  0  0
    1.1240    4.8560   49.0820 C   0  0  0  0  0  0  0  0  0  0  0  0
    3.7370    5.4470   49.9490 C   0  0  0  0  0  0  0  0  0  0  0  0
    1.3540    5.4870   50.4710 C   0  0  0  0  0  0  0  0  0  0  0  0
    3.0440    6.9720   51.6960 C   0  0  0  0  0  0  0  0  0  0  0  0
    2.1960    4.0320   48.6490 N   0  0  0  0  0  0  0  0  0  0  0  0
    2.6100    6.2740   50.4740 N   0  0  0  0  0  0  0  0  0  0  0  0
    0.7110    0.1520   49.8360 N   0  0  0  0  0  0  0  0  0  0  0  0
    2.6390    2.4160   50.0770 O   0  0  0  0  0  0  0  0  0  0  0  0
    2.1100   -1.5700   49.9570 O   0  0  0  0  0  0  0  0  0  0  0  0
  1  3  2  0
  1  4  1  0
  2  6  2  0
  2  7  1  0
  3  9  1  0
  4 10  2  0
  5  8  2  0
  5 11  1  0
  6 12  1  0
  7 13  2  0
  8 14  1  0
  9 15  2  0
 10 15  1  0
 11 16  2  0
 12 17  2  0
 13 17  1  0
 14 18  2  0
 15 20  1  0
 16 18  1  0
 16 19  1  0
 17 25  1  0
 18 28  1  0
 19 26  1  0
 19 29  2  0
 20 28  1  0
 20 30  2  0
 21 23  1  0
 21 26  1  0
 22 24  1  0
 22 26  1  0
 23 27  1  0
 24 27  1  0
 25 27  1  0
M  CHG  1  27   1
M  END
>  <washed_aromatic_smiles>  (677) 
c1ccc(cc1)CN2CCN(CC2)C(=O)c3ccccc3NC(=O)c4ccccc4

>  <name>  (677) 
neg54544

$$$$
neg314966
     RDKit          3D

 27 30  0  0  0  0  0  0  0  0999 V2000
    3.1060    4.2770   48.1140 C   0  0  0  0  0  0  0  0  0  0  0  0
    6.6730    7.4240   59.4260 C   0  0  0  0  0  0  0  0  0  0  0  0
    1.7270    4.3140   48.2300 C   0  0  0  0  0  0  0  0  0  0  0  0
    3.8810    4.8140   49.1250 C   0  0  0  0  0  0  0  0  0  0  0  0
    5.7790    8.3510   59.9310 C   0  0  0  0  0  0  0  0  0  0  0  0
    7.0020    7.4610   58.0840 C   0  0  0  0  0  0  0  0  0  0  0  0
    1.1580    4.8580   49.3730 C   0  0  0  0  0  0  0  0  0  0  0  0
    3.3120    5.2400   50.3080 C   0  0  0  0  0  0  0  0  0  0  0  0
    5.2060    9.3100   59.1050 C   0  0  0  0  0  0  0  0  0  0  0  0
    6.3760    8.3710   57.2320 C   0  0  0  0  0  0  0  0  0  0  0  0
    1.9350    5.2630   50.4460 C   0  0  0  0  0  0  0  0  0  0  0  0
    5.4640    9.2710   57.7560 C   0  0  0  0  0  0  0  0  0  0  0  0
    3.6450    9.6830   54.9150 C   0  0  0  0  0  0  0  0  0  0  0  0
    4.5820   10.6550   54.7100 C   0  0  0  0  0  0  0  0  0  0  0  0
    3.5960    9.3980   56.3160 C   0  0  0  0  0  0  0  0  0  0  0  0
    5.1680   10.9780   55.9700 C   0  0  0  0  0  0  0  0  0  0  0  0
    3.1360    9.0030   52.5800 C   0  0  0  0  0  0  0  0  0  0  0  0
    1.4310    8.6580   54.2090 C   0  0  0  0  0  0  0  0  0  0  0  0
    2.8410    7.6490   51.9520 C   0  0  0  0  0  0  0  0  0  0  0  0
    1.0020    7.3430   53.5620 C   0  0  0  0  0  0  0  0  0  0  0  0
    1.2900    5.7060   51.7360 C   0  0  0  0  0  0  0  0  0  0  0  0
    4.6760   10.0510   56.8940 N   0  0  0  0  0  0  0  0  0  0  0  0
    2.8590    8.9580   53.9900 N   0  0  0  0  0  0  0  0  0  0  0  0
    1.4500    7.1350   52.1490 N   0  0  0  0  0  0  0  0  0  0  0  0
    2.8400    8.6890   56.9660 O   0  0  0  0  0  0  0  0  0  0  0  0
    5.9130   11.9020   56.2810 O   0  0  0  0  0  0  0  0  0  0  0  0
    5.0300   11.5020   53.2720 Cl  0  0  0  0  0  0  0  0  0  0  0  0
  1  3  2  0
  1  4  1  0
  2  5  2  0
  2  6  1  0
  3  7  1  0
  4  8  2  0
  5  9  1  0
  6 10  2  0
  7 11  2  0
  8 11  1  0
  9 12  2  0
 10 12  1  0
 11 21  1  0
 12 22  1  0
 13 14  2  0
 13 15  1  0
 13 23  1  0
 14 16  1  0
 14 27  1  0
 15 22  1  0
 15 25  2  0
 16 22  1  0
 16 26  2  0
 17 19  1  0
 17 23  1  0
 18 20  1  0
 18 23  1  0
 19 24  1  0
 20 24  1  0
 21 24  1  0
M  CHG  1  24   1
M  END
>  <washed_aromatic_smiles>  (678) 
c1ccc(cc1)CN2CCN(CC2)C3=C(C(=O)N(C3=O)c4ccccc4)Cl

>  <name>  (678) 
neg314966

$$$$
neg148257
     RDKit          3D

 30 33  0  0  0  0  0  0  0  0999 V2000
    6.6310   10.2110   53.3110 C   0  0  0  0  0  0  0  0  0  0  0  0
   -0.7170   -0.4600   48.7340 C   0  0  0  0  0  0  0  0  0  0  0  0
    2.7090   -0.3070   55.0720 C   0  0  0  0  0  0  0  0  0  0  0  0
    5.5740   11.0230   52.9570 C   0  0  0  0  0  0  0  0  0  0  0  0
    6.4280    9.1120   54.1370 C   0  0  0  0  0  0  0  0  0  0  0  0
    0.5840   -0.9360   48.6740 C   0  0  0  0  0  0  0  0  0  0  0  0
   -1.1140    0.2680   49.8440 C   0  0  0  0  0  0  0  0  0  0  0  0
    1.5610   -0.6090   54.3750 C   0  0  0  0  0  0  0  0  0  0  0  0
    3.5250    0.6960   54.6290 C   0  0  0  0  0  0  0  0  0  0  0  0
    4.3000   10.7030   53.3870 C   0  0  0  0  0  0  0  0  0  0  0  0
    5.1670    8.8400   54.6390 C   0  0  0  0  0  0  0  0  0  0  0  0
    1.4600   -0.5830   49.6730 C   0  0  0  0  0  0  0  0  0  0  0  0
   -0.1710    0.8530   50.6460 C   0  0  0  0  0  0  0  0  0  0  0  0
    1.3310   -0.0440   53.1460 C   0  0  0  0  0  0  0  0  0  0  0  0
    3.3740    1.1710   53.3370 C   0  0  0  0  0  0  0  0  0  0  0  0
    4.0870    9.6170   54.2390 C   0  0  0  0  0  0  0  0  0  0  0  0
    1.1520    0.4870   50.4730 C   0  0  0  0  0  0  0  0  0  0  0  0
    2.2800    0.8090   52.5810 C   0  0  0  0  0  0  0  0  0  0  0  0
    2.2670    3.7410   51.4140 C   0  0  0  0  0  0  0  0  0  0  0  0
    3.0890    7.8710   52.4820 C   0  0  0  0  0  0  0  0  0  0  0  0
    0.8040    7.7670   53.5410 C   0  0  0  0  0  0  0  0  0  0  0  0
    2.6820    6.7830   51.5170 C   0  0  0  0  0  0  0  0  0  0  0  0
    0.4420    6.8150   52.3920 C   0  0  0  0  0  0  0  0  0  0  0  0
    2.6940    9.1050   54.5340 C   0  0  0  0  0  0  0  0  0  0  0  0
    1.3240    4.8970   51.1250 C   0  0  0  0  0  0  0  0  0  0  0  0
    2.2380    1.2390   51.1370 C   0  0  0  0  0  0  0  0  0  0  0  0
    2.0380    8.5920   53.2910 N   0  0  0  0  0  0  0  0  0  0  0  0
    1.5980    6.0010   52.0480 N   0  0  0  0  0  0  0  0  0  0  0  0
    2.0060    2.6280   50.7470 N   0  0  0  0  0  0  0  0  0  0  0  0
    2.9890    3.7940   52.3970 O   0  0  0  0  0  0  0  0  0  0  0  0
  1  4  2  0
  1  5  1  0
  2  6  2  0
  2  7  1  0
  3  8  2  0
  3  9  1  0
  4 10  1  0
  5 11  2  0
  6 12  1  0
  7 13  2  0
  8 14  1  0
  9 15  2  0
 10 16  2  0
 11 16  1  0
 12 17  2  0
 13 17  1  0
 14 18  2  0
 15 18  1  0
 16 24  1  0
 17 26  1  0
 18 26  1  0
 19 25  1  0
 19 29  1  0
 19 30  2  0
 20 22  1  0
 20 27  1  0
 21 23  1  0
 21 27  1  0
 22 28  1  0
 23 28  1  0
 24 27  1  0
 25 28  1  0
 26 29  1  0
M  CHG  1  27   1
M  END
>  <washed_aromatic_smiles>  (679) 
c1ccc(cc1)CN2CCN(CC2)CC(=O)NC(c3ccccc3)c4ccccc4

>  <name>  (679) 
neg148257

$$$$
neg86809
     RDKit          3D

 25 27  0  0  0  0  0  0  0  0999 V2000
    6.4540   10.1070   53.3310 C   0  0  0  0  0  0  0  0  0  0  0  0
    5.3010   10.7260   52.8860 C   0  0  0  0  0  0  0  0  0  0  0  0
    6.3730    9.0880   54.2710 C   0  0  0  0  0  0  0  0  0  0  0  0
    1.8400   -0.4520   53.7170 C   0  0  0  0  0  0  0  0  0  0  0  0
    2.0560   -1.3620   52.6900 C   0  0  0  0  0  0  0  0  0  0  0  0
    4.0710   10.3170   53.3740 C   0  0  0  0  0  0  0  0  0  0  0  0
    5.1560    8.7490   54.8360 C   0  0  0  0  0  0  0  0  0  0  0  0
    2.1960    0.8730   53.5140 C   0  0  0  0  0  0  0  0  0  0  0  0
    2.6920   -0.9990   51.5350 C   0  0  0  0  0  0  0  0  0  0  0  0
    3.9930    9.3560   54.3780 C   0  0  0  0  0  0  0  0  0  0  0  0
    2.8520    1.2180   52.3380 C   0  0  0  0  0  0  0  0  0  0  0  0
    3.3190    0.2100   51.5150 C   0  0  0  0  0  0  0  0  0  0  0  0
    2.0020    4.1400   50.2770 C   0  0  0  0  0  0  0  0  0  0  0  0
    0.9200    8.0430   53.2230 C   0  0  0  0  0  0  0  0  0  0  0  0
    3.1950    7.1540   53.0770 C   0  0  0  0  0  0  0  0  0  0  0  0
    0.4530    6.8790   52.3410 C   0  0  0  0  0  0  0  0  0  0  0  0
    2.7390    6.0650   52.1280 C   0  0  0  0  0  0  0  0  0  0  0  0
    2.6610    8.8270   54.8480 C   0  0  0  0  0  0  0  0  0  0  0  0
    2.9860    2.6000   51.8230 C   0  0  0  0  0  0  0  0  0  0  0  0
    0.9930    5.2270   50.6510 C   0  0  0  0  0  0  0  0  0  0  0  0
    2.1440    7.6970   54.0090 N   0  0  0  0  0  0  0  0  0  0  0  0
    1.5050    6.3970   51.4110 N   0  0  0  0  0  0  0  0  0  0  0  0
    1.8710    3.0350   51.0160 N   0  0  0  0  0  0  0  0  0  0  0  0
    2.9510    4.3580   49.5270 O   0  0  0  0  0  0  0  0  0  0  0  0
    4.8130    0.2890   50.6920 Cl  0  0  0  0  0  0  0  0  0  0  0  0
  1  2  2  0
  1  3  1  0
  2  6  1  0
  3  7  2  0
  4  5  2  0
  4  8  1  0
  5  9  1  0
  6 10  2  0
  7 10  1  0
  8 11  2  0
  9 12  2  0
 10 18  1  0
 11 12  1  0
 11 19  1  0
 12 25  1  0
 13 20  1  0
 13 23  1  0
 13 24  2  0
 14 16  1  0
 14 21  1  0
 15 17  1  0
 15 21  1  0
 16 22  1  0
 17 22  1  0
 18 21  1  0
 19 23  1  0
 20 22  1  0
M  CHG  1  21   1
M  END
>  <washed_aromatic_smiles>  (680) 
c1ccc(cc1)CN2CCN(CC2)CC(=O)NCc3ccccc3Cl

>  <name>  (680) 
neg86809

$$$$
neg96210
     RDKit          3D

 25 27  0  0  0  0  0  0  0  0999 V2000
    0.5320    0.0090   48.9570 C   0  0  0  0  0  0  0  0  0  0  0  0
    1.4370    0.5840   49.8400 C   0  0  0  0  0  0  0  0  0  0  0  0
    0.0990    0.7250   47.8500 C   0  0  0  0  0  0  0  0  0  0  0  0
    5.3180   13.0890   54.8650 C   0  0  0  0  0  0  0  0  0  0  0  0
    1.9280    1.8630   49.5970 C   0  0  0  0  0  0  0  0  0  0  0  0
    0.5790    2.0040   47.6120 C   0  0  0  0  0  0  0  0  0  0  0  0
    4.9690   12.0650   53.9920 C   0  0  0  0  0  0  0  0  0  0  0  0
    5.3820   12.8530   56.2380 C   0  0  0  0  0  0  0  0  0  0  0  0
    4.7770   10.5460   55.8770 C   0  0  0  0  0  0  0  0  0  0  0  0
    1.5040    2.5840   48.4760 C   0  0  0  0  0  0  0  0  0  0  0  0
    4.6590   10.8080   54.5120 C   0  0  0  0  0  0  0  0  0  0  0  0
    5.1090   11.5800   56.7390 C   0  0  0  0  0  0  0  0  0  0  0  0
    3.0130    9.0720   53.9220 C   0  0  0  0  0  0  0  0  0  0  0  0
    0.9360    5.0020   50.1320 C   0  0  0  0  0  0  0  0  0  0  0  0
    3.3540    4.8980   50.0220 C   0  0  0  0  0  0  0  0  0  0  0  0
    0.9770    5.9270   51.3590 C   0  0  0  0  0  0  0  0  0  0  0  0
    3.3750    5.8670   51.1940 C   0  0  0  0  0  0  0  0  0  0  0  0
    2.0260    3.9680   48.1340 C   0  0  0  0  0  0  0  0  0  0  0  0
    2.4450    8.2680   52.7900 C   0  0  0  0  0  0  0  0  0  0  0  0
    2.3500    6.7850   53.1750 C   0  0  0  0  0  0  0  0  0  0  0  0
    2.1160    4.9870   49.2300 N   0  0  0  0  0  0  0  0  0  0  0  0
    2.2270    5.7910   52.0910 N   0  0  0  0  0  0  0  0  0  0  0  0
    4.1230    9.8400   53.6360 N   0  0  0  0  0  0  0  0  0  0  0  0
    2.5040    9.0600   55.0290 O   0  0  0  0  0  0  0  0  0  0  0  0
    5.1380   11.2380   58.5930 Br  0  0  0  0  0  0  0  0  0  0  0  0
  1  2  2  0
  1  3  1  0
  2  5  1  0
  3  6  2  0
  4  7  2  0
  4  8  1  0
  5 10  2  0
  6 10  1  0
  7 11  1  0
  8 12  2  0
  9 11  2  0
  9 12  1  0
 10 18  1  0
 11 23  1  0
 12 25  1  0
 13 19  1  0
 13 23  1  0
 13 24  2  0
 14 16  1  0
 14 21  1  0
 15 17  1  0
 15 21  1  0
 16 22  1  0
 17 22  1  0
 18 21  1  0
 19 20  1  0
 20 22  1  0
M  CHG  1  21   1
M  END
>  <washed_aromatic_smiles>  (681) 
c1ccc(cc1)CN2CCN(CC2)CCC(=O)Nc3cccc(c3)Br

>  <name>  (681) 
neg96210

$$$$
neg237094
     RDKit          3D

 29 33  0  0  0  0  0  0  0  0999 V2000
    0.9150    8.9540   57.2490 C   0  0  0  0  0  0  0  0  0  0  0  0
    2.9270   -1.1070   53.6450 C   0  0  0  0  0  0  0  0  0  0  0  0
    3.0170    0.0170   54.4480 C   0  0  0  0  0  0  0  0  0  0  0  0
   -0.0370    8.6160   56.3090 C   0  0  0  0  0  0  0  0  0  0  0  0
    2.2360    9.1890   56.8700 C   0  0  0  0  0  0  0  0  0  0  0  0
    1.0810    3.0180   47.9030 C   0  0  0  0  0  0  0  0  0  0  0  0
    2.5100   -1.0230   52.3320 C   0  0  0  0  0  0  0  0  0  0  0  0
    2.8120    1.2570   53.8830 C   0  0  0  0  0  0  0  0  0  0  0  0
    1.2110    1.7740   48.4910 C   0  0  0  0  0  0  0  0  0  0  0  0
    0.3200    8.5330   54.9630 C   0  0  0  0  0  0  0  0  0  0  0  0
    2.5970    9.0900   55.5310 C   0  0  0  0  0  0  0  0  0  0  0  0
    1.4100    4.1740   48.5940 C   0  0  0  0  0  0  0  0  0  0  0  0
    2.2870    0.2230   51.7560 C   0  0  0  0  0  0  0  0  0  0  0  0
    2.5600    1.3710   52.5090 C   0  0  0  0  0  0  0  0  0  0  0  0
    1.6960    1.6600   49.7920 C   0  0  0  0  0  0  0  0  0  0  0  0
    2.0670    2.8200   50.5130 C   0  0  0  0  0  0  0  0  0  0  0  0
    1.6350    8.7830   54.5710 C   0  0  0  0  0  0  0  0  0  0  0  0
    1.8470    4.0890   49.9180 C   0  0  0  0  0  0  0  0  0  0  0  0
    1.7760    0.3460   50.4090 C   0  0  0  0  0  0  0  0  0  0  0  0
    2.5910    2.6590   51.8540 C   0  0  0  0  0  0  0  0  0  0  0  0
    0.6220    5.7590   51.2230 C   0  0  0  0  0  0  0  0  0  0  0  0
    3.1380    6.0030   50.9480 C   0  0  0  0  0  0  0  0  0  0  0  0
    0.6500    6.8720   52.2830 C   0  0  0  0  0  0  0  0  0  0  0  0
    3.0310    6.7430   52.2950 C   0  0  0  0  0  0  0  0  0  0  0  0
    1.9870    8.8820   53.1090 C   0  0  0  0  0  0  0  0  0  0  0  0
    1.8930    5.2870   50.6470 N   0  0  0  0  0  0  0  0  0  0  0  0
    1.8920    7.6660   52.2550 N   0  0  0  0  0  0  0  0  0  0  0  0
    1.3810   -0.6490   49.8130 O   0  0  0  0  0  0  0  0  0  0  0  0
    2.9950    3.6050   52.5050 O   0  0  0  0  0  0  0  0  0  0  0  0
  1  4  2  0
  1  5  1  0
  2  3  2  0
  2  7  1  0
  3  8  1  0
  4 10  1  0
  5 11  2  0
  6  9  1  0
  6 12  2  0
  7 13  2  0
  8 14  2  0
  9 15  2  0
 10 17  2  0
 11 17  1  0
 12 18  1  0
 13 14  1  0
 13 19  1  0
 14 20  1  0
 15 16  1  0
 15 19  1  0
 16 18  2  0
 16 20  1  0
 17 25  1  0
 18 26  1  0
 19 28  2  0
 20 29  2  0
 21 23  1  0
 21 26  1  0
 22 24  1  0
 22 26  1  0
 23 27  1  0
 24 27  1  0
 25 27  1  0
M  CHG  1  27   1
M  END
>  <washed_aromatic_smiles>  (682) 
c1ccc(cc1)CN2CCN(CC2)c3cccc4c3C(=O)c5ccccc5C4=O

>  <name>  (682) 
neg237094

$$$$
neg180605
     RDKit          3D

 26 28  0  0  0  0  0  0  0  0999 V2000
    6.0900   -1.6940   60.3430 C   0  0  0  0  0  0  0  0  0  0  0  0
    5.1320   -0.7700   60.7470 C   0  0  0  0  0  0  0  0  0  0  0  0
    6.5810   -1.6590   59.0430 C   0  0  0  0  0  0  0  0  0  0  0  0
    4.6640    0.1870   59.8500 C   0  0  0  0  0  0  0  0  0  0  0  0
    6.1110   -0.7050   58.1450 C   0  0  0  0  0  0  0  0  0  0  0  0
    0.8100    2.1600   48.8130 C   0  0  0  0  0  0  0  0  0  0  0  0
    0.8320   -0.2400   48.7750 C   0  0  0  0  0  0  0  0  0  0  0  0
    0.8640    2.1870   47.4360 C   0  0  0  0  0  0  0  0  0  0  0  0
    1.0400   -0.2110   47.4120 C   0  0  0  0  0  0  0  0  0  0  0  0
    5.1420    0.2210   58.5400 C   0  0  0  0  0  0  0  0  0  0  0  0
    0.6450    0.9470   49.4710 C   0  0  0  0  0  0  0  0  0  0  0  0
    0.8920    0.9870   46.7280 C   0  0  0  0  0  0  0  0  0  0  0  0
    3.3700    0.9880   55.4070 C   0  0  0  0  0  0  0  0  0  0  0  0
    2.1140   -0.7550   54.0380 C   0  0  0  0  0  0  0  0  0  0  0  0
    3.6550    0.6920   52.7660 C   0  0  0  0  0  0  0  0  0  0  0  0
    1.0220   -0.0650   53.3090 C   0  0  0  0  0  0  0  0  0  0  0  0
    2.4980    1.2170   51.9670 C   0  0  0  0  0  0  0  0  0  0  0  0
    3.3120    0.0910   54.1660 C   0  0  0  0  0  0  0  0  0  0  0  0
    4.6020    1.2530   57.5670 C   0  0  0  0  0  0  0  0  0  0  0  0
    1.3700    0.2990   51.9700 N   0  0  0  0  0  0  0  0  0  0  0  0
    4.3660    0.6880   56.2520 N   0  0  0  0  0  0  0  0  0  0  0  0
    2.5340    1.8550   55.6210 O   0  0  0  0  0  0  0  0  0  0  0  0
   -0.2440    2.0590   51.6740 O   0  0  0  0  0  0  0  0  0  0  0  0
   -0.9600   -0.0970   51.1620 O   0  0  0  0  0  0  0  0  0  0  0  0
    0.0880    0.8230   51.1400 S   0  0  0  0  0  0  0  0  0  0  0  0
    0.8220    0.9450   45.0170 Cl  0  0  0  0  0  0  0  0  0  0  0  0
  1  2  2  0
  1  3  1  0
  2  4  1  0
  3  5  2  0
  4 10  2  0
  5 10  1  0
  6  8  2  0
  6 11  1  0
  7  9  1  0
  7 11  2  0
  8 12  1  0
  9 12  2  0
 10 19  1  0
 11 25  1  0
 12 26  1  0
 13 18  1  0
 13 21  1  0
 13 22  2  0
 14 16  1  0
 14 18  1  0
 15 17  1  0
 15 18  1  0
 16 20  1  0
 17 20  1  0
 19 21  1  0
 20 25  1  0
 23 25  2  0
 24 25  2  0
M  END
>  <washed_aromatic_smiles>  (683) 
c1ccc(cc1)CNC(=O)C2CCN(CC2)S(=O)(=O)c3ccc(cc3)Cl

>  <name>  (683) 
neg180605

$$$$
neg19570
     RDKit          3D

 30 33  0  0  0  0  0  0  0  0999 V2000
    5.7040   13.2070   57.9690 C   0  0  0  0  0  0  0  0  0  0  0  0
    5.9470    5.8040   59.2480 C   0  0  0  0  0  0  0  0  0  0  0  0
    2.9150    3.9660   48.2370 C   0  0  0  0  0  0  0  0  0  0  0  0
    5.4380   12.2070   58.8950 C   0  0  0  0  0  0  0  0  0  0  0  0
    5.6400   12.9160   56.6150 C   0  0  0  0  0  0  0  0  0  0  0  0
    6.5110    7.0440   59.5080 C   0  0  0  0  0  0  0  0  0  0  0  0
    5.1300    5.6470   58.1400 C   0  0  0  0  0  0  0  0  0  0  0  0
    2.4820    3.1390   49.2630 C   0  0  0  0  0  0  0  0  0  0  0  0
    3.2520    5.2880   48.5070 C   0  0  0  0  0  0  0  0  0  0  0  0
    5.1320   10.9200   58.4660 C   0  0  0  0  0  0  0  0  0  0  0  0
    5.3980   11.6210   56.1910 C   0  0  0  0  0  0  0  0  0  0  0  0
    6.2490    8.1260   58.6700 C   0  0  0  0  0  0  0  0  0  0  0  0
    4.8530    6.7370   57.3230 C   0  0  0  0  0  0  0  0  0  0  0  0
    2.4000    3.6370   50.5570 C   0  0  0  0  0  0  0  0  0  0  0  0
    3.1740    5.7850   49.7960 C   0  0  0  0  0  0  0  0  0  0  0  0
    5.1860   10.5850   57.1110 C   0  0  0  0  0  0  0  0  0  0  0  0
    5.3670    8.0010   57.5880 C   0  0  0  0  0  0  0  0  0  0  0  0
    2.7420    4.9630   50.8260 C   0  0  0  0  0  0  0  0  0  0  0  0
    3.5860    9.0320   56.0260 C   0  0  0  0  0  0  0  0  0  0  0  0
    5.0250    9.1060   54.2980 C   0  0  0  0  0  0  0  0  0  0  0  0
    2.1170    7.6020   53.3260 C   0  0  0  0  0  0  0  0  0  0  0  0
    4.9910    9.1380   56.6120 C   0  0  0  0  0  0  0  0  0  0  0  0
    2.6190    5.4630   52.2370 C   0  0  0  0  0  0  0  0  0  0  0  0
    2.6100    8.9830   53.6680 C   0  0  0  0  0  0  0  0  0  0  0  0
    5.7760    8.9240   55.4090 N   0  0  0  0  0  0  0  0  0  0  0  0
    3.6980    9.0200   54.6510 N   0  0  0  0  0  0  0  0  0  0  0  0
    2.8730    6.8760   52.4920 N   0  0  0  0  0  0  0  0  0  0  0  0
    2.5230    9.0130   56.6150 O   0  0  0  0  0  0  0  0  0  0  0  0
    5.4640    9.4330   53.2050 O   0  0  0  0  0  0  0  0  0  0  0  0
    1.0940    7.1680   53.8490 O   0  0  0  0  0  0  0  0  0  0  0  0
  1  4  2  0
  1  5  1  0
  2  6  2  0
  2  7  1  0
  3  8  2  0
  3  9  1  0
  4 10  1  0
  5 11  2  0
  6 12  1  0
  7 13  2  0
  8 14  1  0
  9 15  2  0
 10 16  2  0
 11 16  1  0
 12 17  2  0
 13 17  1  0
 14 18  2  0
 15 18  1  0
 16 22  1  0
 17 22  1  0
 18 23  1  0
 19 22  1  0
 19 26  1  0
 19 28  2  0
 20 25  1  0
 20 26  1  0
 20 29  2  0
 21 24  1  0
 21 27  1  0
 21 30  2  0
 22 25  1  0
 23 27  1  0
 24 26  1  0
M  END
>  <washed_aromatic_smiles>  (684) 
c1ccc(cc1)CNC(=O)CN2C(=O)C(NC2=O)(c3ccccc3)c4ccccc4

>  <name>  (684) 
neg19570

$$$$
neg308122
     RDKit          3D

 28 30  0  0  0  0  0  0  0  0999 V2000
    5.6400   11.1220   53.2150 C   0  0  0  0  0  0  0  0  0  0  0  0
    6.2530    9.9970   53.7300 C   0  0  0  0  0  0  0  0  0  0  0  0
    4.2730   11.1140   53.0400 C   0  0  0  0  0  0  0  0  0  0  0  0
    2.7260    3.3720   50.1230 C   0  0  0  0  0  0  0  0  0  0  0  0
    1.4660    3.8660   48.1540 C   0  0  0  0  0  0  0  0  0  0  0  0
    5.5150    8.8890   54.1260 C   0  0  0  0  0  0  0  0  0  0  0  0
    3.5330    9.9730   53.3440 C   0  0  0  0  0  0  0  0  0  0  0  0
    2.2900    2.0740   50.0890 C   0  0  0  0  0  0  0  0  0  0  0  0
    0.9680    2.5600   48.1510 C   0  0  0  0  0  0  0  0  0  0  0  0
    2.3460    4.2840   49.1590 C   0  0  0  0  0  0  0  0  0  0  0  0
    4.1380    8.8800   53.9440 C   0  0  0  0  0  0  0  0  0  0  0  0
    1.3640    1.6500   49.1380 C   0  0  0  0  0  0  0  0  0  0  0  0
    2.9100    5.6150   49.2760 C   0  0  0  0  0  0  0  0  0  0  0  0
    1.7660    6.9180   52.6090 C   0  0  0  0  0  0  0  0  0  0  0  0
    1.3300   -0.0660   53.2570 C   0  0  0  0  0  0  0  0  0  0  0  0
    2.6360   -0.5800   52.6890 C   0  0  0  0  0  0  0  0  0  0  0  0
    0.4860    0.3140   52.0400 C   0  0  0  0  0  0  0  0  0  0  0  0
    2.3080   -1.0110   51.2590 C   0  0  0  0  0  0  0  0  0  0  0  0
    3.2880    7.7090   54.3660 C   0  0  0  0  0  0  0  0  0  0  0  0
    1.6730    6.0450   51.3850 C   0  0  0  0  0  0  0  0  0  0  0  0
    1.0360   -0.3980   50.8890 N   0  0  0  0  0  0  0  0  0  0  0  0
    2.9450    6.8630   53.2410 N   0  0  0  0  0  0  0  0  0  0  0  0
    3.5670    6.1470   48.4080 O   0  0  0  0  0  0  0  0  0  0  0  0
    0.8190    7.6000   52.9970 O   0  0  0  0  0  0  0  0  0  0  0  0
   -0.7910    0.1630   49.2780 O   0  0  0  0  0  0  0  0  0  0  0  0
    1.1800   -0.8870   48.4040 O   0  0  0  0  0  0  0  0  0  0  0  0
    2.7560    6.2980   50.4350 O   0  0  0  0  0  0  0  0  0  0  0  0
    0.6160    0.0220   49.3390 S   0  0  0  0  0  0  0  0  0  0  0  0
  1  2  2  0
  1  3  1  0
  2  6  1  0
  3  7  2  0
  4  8  2  0
  4 10  1  0
  5  9  1  0
  5 10  2  0
  6 11  2  0
  7 11  1  0
  8 12  1  0
  9 12  2  0
 10 13  1  0
 11 19  1  0
 12 28  1  0
 13 23  2  0
 13 27  1  0
 14 20  1  0
 14 22  1  0
 14 24  2  0
 15 16  1  0
 15 17  1  0
 16 18  1  0
 17 21  1  0
 18 21  1  0
 19 22  1  0
 20 27  1  0
 21 28  1  0
 25 28  2  0
 26 28  2  0
M  END
>  <washed_aromatic_smiles>  (685) 
c1ccc(cc1)CNC(=O)COC(=O)c2ccc(cc2)S(=O)(=O)N3CCCC3

>  <name>  (685) 
neg308122

$$$$
neg3901
     RDKit          3D

 29 31  0  0  0  0  0  0  0  0999 V2000
    5.6320    1.1310   57.9150 C   0  0  0  0  0  0  0  0  0  0  0  0
    4.6700    1.9510   57.3410 C   0  0  0  0  0  0  0  0  0  0  0  0
    5.7520   -0.1860   57.4960 C   0  0  0  0  0  0  0  0  0  0  0  0
    2.9980    4.7960   52.3700 C   0  0  0  0  0  0  0  0  0  0  0  0
    1.1660    5.5870   51.0780 C   0  0  0  0  0  0  0  0  0  0  0  0
    3.8050    1.4530   56.3700 C   0  0  0  0  0  0  0  0  0  0  0  0
    4.9160   -0.6740   56.4990 C   0  0  0  0  0  0  0  0  0  0  0  0
    3.2570    6.0720   52.8360 C   0  0  0  0  0  0  0  0  0  0  0  0
    1.3100    6.8260   51.6940 C   0  0  0  0  0  0  0  0  0  0  0  0
    2.0390    4.5480   51.3940 C   0  0  0  0  0  0  0  0  0  0  0  0
    3.9390    0.1420   55.9190 C   0  0  0  0  0  0  0  0  0  0  0  0
    2.4280    7.1130   52.4740 C   0  0  0  0  0  0  0  0  0  0  0  0
    1.9720    3.2190   50.7920 C   0  0  0  0  0  0  0  0  0  0  0  0
    2.6390   -0.1240   52.4020 C   0  0  0  0  0  0  0  0  0  0  0  0
    4.0070    9.9550   57.1810 C   0  0  0  0  0  0  0  0  0  0  0  0
    3.0540    8.7980   56.9190 C   0  0  0  0  0  0  0  0  0  0  0  0
    5.0990    9.8660   56.1230 C   0  0  0  0  0  0  0  0  0  0  0  0
    2.4890    8.8360   55.5010 C   0  0  0  0  0  0  0  0  0  0  0  0
    4.5530    9.8070   54.6870 C   0  0  0  0  0  0  0  0  0  0  0  0
    3.0440   -0.4090   54.8170 C   0  0  0  0  0  0  0  0  0  0  0  0
    2.5180    0.8050   51.2060 C   0  0  0  0  0  0  0  0  0  0  0  0
    3.4630    8.8290   54.4420 N   0  0  0  0  0  0  0  0  0  0  0  0
    2.9390    0.4080   53.6010 N   0  0  0  0  0  0  0  0  0  0  0  0
    1.5600    2.9730   49.6710 O   0  0  0  0  0  0  0  0  0  0  0  0
    2.4770   -1.3340   52.2630 O   0  0  0  0  0  0  0  0  0  0  0  0
    3.8670    9.2130   52.0280 O   0  0  0  0  0  0  0  0  0  0  0  0
    1.6280    9.5420   52.8520 O   0  0  0  0  0  0  0  0  0  0  0  0
    2.4260    2.2020   51.5640 O   0  0  0  0  0  0  0  0  0  0  0  0
    2.8390    8.8010   52.9000 S   0  0  0  0  0  0  0  0  0  0  0  0
  1  2  2  0
  1  3  1  0
  2  6  1  0
  3  7  2  0
  4  8  2  0
  4 10  1  0
  5  9  1  0
  5 10  2  0
  6 11  2  0
  7 11  1  0
  8 12  1  0
  9 12  2  0
 10 13  1  0
 11 20  1  0
 12 29  1  0
 13 24  2  0
 13 28  1  0
 14 21  1  0
 14 23  1  0
 14 25  2  0
 15 16  1  0
 15 17  1  0
 16 18  1  0
 17 19  1  0
 18 22  1  0
 19 22  1  0
 20 23  1  0
 21 28  1  0
 22 29  1  0
 26 29  2  0
 27 29  2  0
M  END
>  <washed_aromatic_smiles>  (686) 
c1ccc(cc1)CNC(=O)COC(=O)c2ccc(cc2)S(=O)(=O)N3CCCCC3

>  <name>  (686) 
neg3901

$$$$
neg329177
     RDKit          3D

 28 31  0  0  1  0  0  0  0  0999 V2000
    5.1030   13.6380   54.9850 C   0  0  0  0  0  0  0  0  0  0  0  0
    5.4890   13.3070   53.6940 C   0  0  0  0  0  0  0  0  0  0  0  0
    5.1480   12.7030   56.0060 C   0  0  0  0  0  0  0  0  0  0  0  0
    5.9300   12.0250   53.4180 C   0  0  0  0  0  0  0  0  0  0  0  0
    5.5600   11.4130   55.7240 C   0  0  0  0  0  0  0  0  0  0  0  0
    5.9550   11.0720   54.4300 C   0  0  0  0  0  0  0  0  0  0  0  0
    4.0240    9.3030   53.3620 C   0  0  0  0  0  0  0  0  0  0  0  0
    2.8230    4.0580   51.6520 C   0  0  0  0  0  0  0  0  0  0  0  0
    1.6970   -0.7660   50.8120 C   0  0  0  0  0  0  0  0  0  0  0  0
    3.1240   -0.3780   51.1680 C   0  0  0  0  0  0  0  0  0  0  0  0
    0.9740    0.0550   49.7370 C   0  0  0  0  0  0  0  0  0  0  0  0
    0.9410    7.8470   54.5880 C   0  0  0  0  0  0  0  0  0  0  0  0
    0.4460    8.4910   53.3290 C   0  0  0  0  0  0  0  0  0  0  0  0
    3.1640    1.1100   51.4300 C   0  0  0  0  0  0  0  0  0  0  0  0
    1.0880    1.5430   50.0470 C   0  0  0  0  0  0  0  0  0  0  0  0
    3.1910    6.6690   53.7770 C   0  0  0  0  0  0  0  0  0  0  0  0
    2.1290    7.5400   51.8070 C   0  0  0  0  0  0  0  0  0  0  0  0
    2.4970    7.8620   54.5240 C   0  0  1  0  0  0  0  0  0  0  0  0
    1.7530    8.7950   52.6460 C   0  0  2  0  0  0  0  0  0  0  0  0
    2.5400    1.9510   50.2900 C   0  0  0  0  0  0  0  0  0  0  0  0
    2.3820    6.2600   52.5420 C   0  0  1  0  0  0  0  0  0  0  0  0
    6.2310    9.6310   54.0780 C   0  0  0  0  0  0  0  0  0  0  0  0
    2.7370    8.9900   53.6960 N   0  0  0  0  0  0  0  0  0  0  0  0
    4.9960    8.9680   54.2510 N   0  0  0  0  0  0  0  0  0  0  0  0
    2.6280    3.4040   50.4670 N   0  0  0  0  0  0  0  0  0  0  0  0
    2.9830    5.3890   51.5550 N   0  0  0  0  0  0  0  0  0  0  0  0
    4.3210    9.7910   52.2920 O   0  0  0  0  0  0  0  0  0  0  0  0
    2.9540    3.5070   52.7300 O   0  0  0  0  0  0  0  0  0  0  0  0
  1  2  2  0
  1  3  1  0
  2  4  1  0
  3  5  2  0
  4  6  2  0
  5  6  1  0
  6 22  1  0
  7 23  1  0
  7 24  1  0
  7 27  2  0
  8 25  1  0
  8 26  1  0
  8 28  2  0
  9 10  1  0
  9 11  1  0
 10 14  1  0
 11 15  1  0
 12 13  1  0
 18 12  1  6
 19 13  1  1
 14 20  1  0
 15 20  1  0
 16 18  1  0
 16 21  1  0
 17 19  1  0
 17 21  1  0
 18 23  1  0
 19 23  1  0
 20 25  1  0
 21 26  1  6
 22 24  1  0
M  END
>  <washed_aromatic_smiles>  (687) 
c1ccc(cc1)CNC(=O)N2C3CCC2CC(C3)NC(=O)NC4CCCCC4

>  <name>  (687) 
neg329177

$$$$
neg133752
     RDKit          3D

 31 34  0  0  0  0  0  0  0  0999 V2000
    5.2450    0.8790   57.7120 C   0  0  0  0  0  0  0  0  0  0  0  0
    5.2840   -0.3700   57.1180 C   0  0  0  0  0  0  0  0  0  0  0  0
    4.3870    1.8440   57.2070 C   0  0  0  0  0  0  0  0  0  0  0  0
    4.4850   -0.6280   56.0130 C   0  0  0  0  0  0  0  0  0  0  0  0
    3.5210    1.5530   56.1510 C   0  0  0  0  0  0  0  0  0  0  0  0
    1.2800    3.9410   49.6420 C   0  0  0  0  0  0  0  0  0  0  0  0
    1.4350    4.9960   50.4960 C   0  0  0  0  0  0  0  0  0  0  0  0
    2.6550    3.5890   51.9840 C   0  0  0  0  0  0  0  0  0  0  0  0
    2.2960    2.4320   51.2800 C   0  0  0  0  0  0  0  0  0  0  0  0
    3.5900    0.3190   55.5070 C   0  0  0  0  0  0  0  0  0  0  0  0
    1.6530    2.6330   50.0200 C   0  0  0  0  0  0  0  0  0  0  0  0
    2.2300    4.8530   51.6070 C   0  0  0  0  0  0  0  0  0  0  0  0
    2.6140    1.1480   51.9330 C   0  0  0  0  0  0  0  0  0  0  0  0
    0.3360    8.6900   53.9170 C   0  0  0  0  0  0  0  0  0  0  0  0
    0.9110    9.0880   52.5790 C   0  0  0  0  0  0  0  0  0  0  0  0
    0.7260    7.2680   54.1620 C   0  0  0  0  0  0  0  0  0  0  0  0
    2.4270    8.8000   52.5420 C   0  0  0  0  0  0  0  0  0  0  0  0
    2.2420    7.2280   54.2540 C   0  0  0  0  0  0  0  0  0  0  0  0
    0.9940    1.9980   47.7400 C   0  0  0  0  0  0  0  0  0  0  0  0
    0.2500    0.6880   49.6790 C   0  0  0  0  0  0  0  0  0  0  0  0
    0.5670    0.8560   46.8430 C   0  0  0  0  0  0  0  0  0  0  0  0
   -0.4150   -0.2380   48.6430 C   0  0  0  0  0  0  0  0  0  0  0  0
    2.7740   -0.0020   54.2440 C   0  0  0  0  0  0  0  0  0  0  0  0
    1.3030    1.5830   49.1400 N   0  0  0  0  0  0  0  0  0  0  0  0
    2.6340    7.4240   52.9220 N   0  0  0  0  0  0  0  0  0  0  0  0
    2.5730    1.1350   53.3280 N   0  0  0  0  0  0  0  0  0  0  0  0
    2.9240    0.1130   51.3470 O   0  0  0  0  0  0  0  0  0  0  0  0
    4.3450    5.7060   52.6570 O   0  0  0  0  0  0  0  0  0  0  0  0
    3.4200    6.7890   50.6410 O   0  0  0  0  0  0  0  0  0  0  0  0
   -0.6290    0.3680   47.3850 O   0  0  0  0  0  0  0  0  0  0  0  0
    3.2360    6.2410   51.9490 S   0  0  0  0  0  0  0  0  0  0  0  0
  1  2  2  0
  1  3  1  0
  2  4  1  0
  3  5  2  0
  4 10  2  0
  5 10  1  0
  6  7  2  0
  6 11  1  0
  7 12  1  0
  8  9  1  0
  8 12  2  0
  9 11  2  0
  9 13  1  0
 10 23  1  0
 11 24  1  0
 12 31  1  0
 13 26  1  0
 13 27  2  0
 14 15  1  0
 14 16  1  0
 15 17  1  0
 16 18  1  0
 17 25  1  0
 18 25  1  0
 19 21  1  0
 19 24  1  0
 20 22  1  0
 20 24  1  0
 21 30  1  0
 22 30  1  0
 23 26  1  0
 25 31  1  0
 28 31  2  0
 29 31  2  0
M  END
>  <washed_aromatic_smiles>  (688) 
c1ccc(cc1)CNC(=O)c2cc(ccc2N3CCOCC3)S(=O)(=O)N4CCCCC4

>  <name>  (688) 
neg133752

$$$$
neg295210
     RDKit          3D

 26 28  0  0  0  0  0  0  0  0999 V2000
    5.0790    9.7920   54.5390 C   0  0  0  0  0  0  0  0  0  0  0  0
    4.6630    8.7030   55.2970 C   0  0  0  0  0  0  0  0  0  0  0  0
    4.5770    9.9730   53.2560 C   0  0  0  0  0  0  0  0  0  0  0  0
    1.2870    4.3570   48.8940 C   0  0  0  0  0  0  0  0  0  0  0  0
    3.7280    7.8110   54.7780 C   0  0  0  0  0  0  0  0  0  0  0  0
    3.6440    9.0750   52.7490 C   0  0  0  0  0  0  0  0  0  0  0  0
    1.1610    3.1270   48.2680 C   0  0  0  0  0  0  0  0  0  0  0  0
    2.4090    3.2970   50.7350 C   0  0  0  0  0  0  0  0  0  0  0  0
    1.8200    4.4400   50.1860 C   0  0  0  0  0  0  0  0  0  0  0  0
    3.2030    8.0010   53.5030 C   0  0  0  0  0  0  0  0  0  0  0  0
    1.5570    1.9830   48.9450 C   0  0  0  0  0  0  0  0  0  0  0  0
    2.2090    2.0270   50.1820 C   0  0  0  0  0  0  0  0  0  0  0  0
    1.5790    5.6240   51.0190 C   0  0  0  0  0  0  0  0  0  0  0  0
    1.8170   -0.4610   53.4290 C   0  0  0  0  0  0  0  0  0  0  0  0
    2.9730    1.6550   53.4940 C   0  0  0  0  0  0  0  0  0  0  0  0
    2.6700   -0.8030   54.6780 C   0  0  0  0  0  0  0  0  0  0  0  0
    2.7420    1.5050   54.9970 C   0  0  0  0  0  0  0  0  0  0  0  0
    2.1160    7.1150   52.9310 C   0  0  0  0  0  0  0  0  0  0  0  0
    2.2520    0.7070   52.6530 N   0  0  0  0  0  0  0  0  0  0  0  0
    2.5180    6.1320   51.8980 N   0  0  0  0  0  0  0  0  0  0  0  0
    0.4700    6.1440   51.0320 O   0  0  0  0  0  0  0  0  0  0  0  0
    1.9860   -0.5870   50.5040 O   0  0  0  0  0  0  0  0  0  0  0  0
    4.1310    0.4090   50.9830 O   0  0  0  0  0  0  0  0  0  0  0  0
    3.2360    0.2670   55.4080 O   0  0  0  0  0  0  0  0  0  0  0  0
    1.2640    0.8050   48.3400 F   0  0  0  0  0  0  0  0  0  0  0  0
    2.7130    0.5070   51.0530 S   0  0  0  0  0  0  0  0  0  0  0  0
  1  2  2  0
  1  3  1  0
  2  5  1  0
  3  6  2  0
  4  7  2  0
  4  9  1  0
  5 10  2  0
  6 10  1  0
  7 11  1  0
  8  9  2  0
  8 12  1  0
  9 13  1  0
 10 18  1  0
 11 12  2  0
 11 25  1  0
 12 26  1  0
 13 20  1  0
 13 21  2  0
 14 16  1  0
 14 19  1  0
 15 17  1  0
 15 19  1  0
 16 24  1  0
 17 24  1  0
 18 20  1  0
 19 26  1  0
 22 26  2  0
 23 26  2  0
M  END
>  <washed_aromatic_smiles>  (689) 
c1ccc(cc1)CNC(=O)c2ccc(c(c2)S(=O)(=O)N3CCOCC3)F

>  <name>  (689) 
neg295210

$$$$
neg133396
     RDKit          3D

 25 27  0  0  0  0  0  0  0  0999 V2000
    2.0810   -0.5230   51.5080 C   0  0  0  0  0  0  0  0  0  0  0  0
    5.3350   12.0110   58.4550 C   0  0  0  0  0  0  0  0  0  0  0  0
    0.9240    0.2370   51.4310 C   0  0  0  0  0  0  0  0  0  0  0  0
    3.3060    0.1190   51.5190 C   0  0  0  0  0  0  0  0  0  0  0  0
    4.8910   10.7250   58.1810 C   0  0  0  0  0  0  0  0  0  0  0  0
    5.6560   12.8680   57.4110 C   0  0  0  0  0  0  0  0  0  0  0  0
    1.0060    1.6150   51.3180 C   0  0  0  0  0  0  0  0  0  0  0  0
    3.3770    1.5020   51.4530 C   0  0  0  0  0  0  0  0  0  0  0  0
    4.7840   10.2880   56.8650 C   0  0  0  0  0  0  0  0  0  0  0  0
    5.5630   12.4250   56.0950 C   0  0  0  0  0  0  0  0  0  0  0  0
    2.2330    2.2790   51.2790 C   0  0  0  0  0  0  0  0  0  0  0  0
    5.1440   11.1240   55.8040 C   0  0  0  0  0  0  0  0  0  0  0  0
    1.8920    5.9560   52.2100 C   0  0  0  0  0  0  0  0  0  0  0  0
    3.3590    6.8670   53.9930 C   0  0  0  0  0  0  0  0  0  0  0  0
    1.9590    8.3420   52.8790 C   0  0  0  0  0  0  0  0  0  0  0  0
    4.4010    7.9910   54.2560 C   0  0  0  0  0  0  0  0  0  0  0  0
    3.0510    9.4030   52.8180 C   0  0  0  0  0  0  0  0  0  0  0  0
    2.2900    3.7890   50.9620 C   0  0  0  0  0  0  0  0  0  0  0  0
    2.5880    7.0320   52.7820 N   0  0  0  0  0  0  0  0  0  0  0  0
    3.9540    9.3820   53.9720 N   0  0  0  0  0  0  0  0  0  0  0  0
    2.6260    4.7570   52.0430 N   0  0  0  0  0  0  0  0  0  0  0  0
    4.6220   11.7500   53.3300 O   0  0  0  0  0  0  0  0  0  0  0  0
    6.3640   10.1190   53.7130 O   0  0  0  0  0  0  0  0  0  0  0  0
    0.2820    6.1220   51.7820 S   0  0  0  0  0  0  0  0  0  0  0  0
    5.0790   10.6200   54.0720 S   0  0  0  0  0  0  0  0  0  0  0  0
  1  3  2  0
  1  4  1  0
  2  5  2  0
  2  6  1  0
  3  7  1  0
  4  8  2  0
  5  9  1  0
  6 10  2  0
  7 11  2  0
  8 11  1  0
  9 12  2  0
 10 12  1  0
 11 18  1  0
 12 25  1  0
 13 19  1  0
 13 21  1  0
 13 24  2  0
 14 16  1  0
 14 19  1  0
 15 17  1  0
 15 19  1  0
 16 20  1  0
 17 20  1  0
 18 21  1  0
 20 25  1  0
 22 25  2  0
 23 25  2  0
M  END
>  <washed_aromatic_smiles>  (690) 
c1ccc(cc1)CNC(=S)N2CCN(CC2)S(=O)(=O)c3ccccc3

>  <name>  (690) 
neg133396

$$$$
neg253389
     RDKit          3D

 29 31  0  0  0  0  0  0  0  0999 V2000
    0.5740    0.7800   47.4860 C   0  0  0  0  0  0  0  0  0  0  0  0
    6.0120    1.5090   59.7130 C   0  0  0  0  0  0  0  0  0  0  0  0
    0.9510    1.8990   46.7730 C   0  0  0  0  0  0  0  0  0  0  0  0
    0.4660    0.8460   48.8610 C   0  0  0  0  0  0  0  0  0  0  0  0
    5.7560    2.6510   58.9650 C   0  0  0  0  0  0  0  0  0  0  0  0
    5.5470    0.2760   59.2760 C   0  0  0  0  0  0  0  0  0  0  0  0
    1.2670    3.0760   47.4450 C   0  0  0  0  0  0  0  0  0  0  0  0
    0.7200    2.0480   49.5070 C   0  0  0  0  0  0  0  0  0  0  0  0
    4.9780    2.5670   57.8160 C   0  0  0  0  0  0  0  0  0  0  0  0
    4.7730    0.1930   58.1230 C   0  0  0  0  0  0  0  0  0  0  0  0
    3.1390    2.6200   50.6960 C   0  0  0  0  0  0  0  0  0  0  0  0
    3.1970    1.2820   50.5050 C   0  0  0  0  0  0  0  0  0  0  0  0
    2.8320    2.2880   52.9860 C   0  0  0  0  0  0  0  0  0  0  0  0
    1.0910    3.2110   48.8030 C   0  0  0  0  0  0  0  0  0  0  0  0
    4.4340    1.3480   57.4130 C   0  0  0  0  0  0  0  0  0  0  0  0
    2.8340    3.1880   51.8980 C   0  0  0  0  0  0  0  0  0  0  0  0
    2.8600    0.8940   52.8040 C   0  0  0  0  0  0  0  0  0  0  0  0
    2.8930    0.4110   51.5060 C   0  0  0  0  0  0  0  0  0  0  0  0
    1.2200    4.6810   49.3350 C   0  0  0  0  0  0  0  0  0  0  0  0
    3.4290    1.3190   56.2670 C   0  0  0  0  0  0  0  0  0  0  0  0
    2.3950    5.2120   50.0700 N   0  0  0  0  0  0  0  0  0  0  0  0
    3.6090    0.1740   55.3910 N   0  0  0  0  0  0  0  0  0  0  0  0
    1.2450    5.3400   52.2630 O   0  0  0  0  0  0  0  0  0  0  0  0
    3.6290    5.6830   52.2440 O   0  0  0  0  0  0  0  0  0  0  0  0
    1.2750   -0.2860   54.3840 O   0  0  0  0  0  0  0  0  0  0  0  0
    3.1330   -1.5490   53.6650 O   0  0  0  0  0  0  0  0  0  0  0  0
    2.5070    4.9910   51.7180 S   0  0  0  0  0  0  0  0  0  0  0  0
    2.6480   -0.3020   54.1040 S   0  0  0  0  0  0  0  0  0  0  0  0
    2.3560   -1.1360   50.9920 Cl  0  0  0  0  0  0  0  0  0  0  0  0
  1  3  2  0
  1  4  1  0
  2  5  2  0
  2  6  1  0
  3  7  1  0
  4  8  2  0
  5  9  1  0
  6 10  2  0
  7 14  2  0
  8 14  1  0
  9 15  2  0
 10 15  1  0
 11 12  2  0
 11 16  1  0
 12 18  1  0
 13 16  2  0
 13 17  1  0
 14 19  1  0
 15 20  1  0
 16 27  1  0
 17 18  2  0
 17 28  1  0
 18 29  1  0
 19 21  1  0
 20 22  1  0
 21 27  1  0
 22 28  1  0
 23 27  2  0
 24 27  2  0
 25 28  2  0
 26 28  2  0
M  END
>  <washed_aromatic_smiles>  (691) 
c1ccc(cc1)CNS(=O)(=O)c2ccc(c(c2)S(=O)(=O)NCc3ccccc3)Cl

>  <name>  (691) 
neg253389

$$$$
neg288446
     RDKit          3D

 30 33  0  0  0  0  0  0  0  0999 V2000
    1.0080    2.5080   46.9610 C   0  0  0  0  0  0  0  0  0  0  0  0
    0.4280    2.4060   48.1790 C   0  0  0  0  0  0  0  0  0  0  0  0
    1.0480    1.4120   46.1070 C   0  0  0  0  0  0  0  0  0  0  0  0
    0.1440    1.1660   48.6900 C   0  0  0  0  0  0  0  0  0  0  0  0
    0.9770    0.1660   46.6840 C   0  0  0  0  0  0  0  0  0  0  0  0
    2.7120    7.9830   54.3570 C   0  0  0  0  0  0  0  0  0  0  0  0
    3.0520    3.6010   49.4780 C   0  0  0  0  0  0  0  0  0  0  0  0
    1.2830    4.0060   51.0000 C   0  0  0  0  0  0  0  0  0  0  0  0
    3.0840    8.6830   55.5090 C   0  0  0  0  0  0  0  0  0  0  0  0
    2.8930    2.2170   49.7000 C   0  0  0  0  0  0  0  0  0  0  0  0
    1.1000    2.6290   51.1050 C   0  0  0  0  0  0  0  0  0  0  0  0
    4.1030    9.4580   52.9970 C   0  0  0  0  0  0  0  0  0  0  0  0
    0.6330    0.0780   48.0240 C   0  0  0  0  0  0  0  0  0  0  0  0
    2.3390    4.4920   50.2670 C   0  0  0  0  0  0  0  0  0  0  0  0
    3.2190    8.3750   53.1060 C   0  0  0  0  0  0  0  0  0  0  0  0
    3.9490    9.7630   55.3830 C   0  0  0  0  0  0  0  0  0  0  0  0
    4.4470   10.1410   54.1540 C   0  0  0  0  0  0  0  0  0  0  0  0
    2.0030    1.7150   50.6320 C   0  0  0  0  0  0  0  0  0  0  0  0
    2.9500    6.3270   51.7220 C   0  0  0  0  0  0  0  0  0  0  0  0
    5.1470   11.6100   55.6650 C   0  0  0  0  0  0  0  0  0  0  0  0
    0.8740   -1.1260   48.8250 C   0  0  0  0  0  0  0  0  0  0  0  0
    2.6660    5.8560   50.4400 N   0  0  0  0  0  0  0  0  0  0  0  0
    2.8320    7.6900   51.9160 N   0  0  0  0  0  0  0  0  0  0  0  0
    1.8350   -1.0290   49.9520 N   0  0  0  0  0  0  0  0  0  0  0  0
    3.3000    5.5700   52.6280 O   0  0  0  0  0  0  0  0  0  0  0  0
    2.9080   -0.2660   52.0880 O   0  0  0  0  0  0  0  0  0  0  0  0
    0.5100   -0.0400   51.8610 O   0  0  0  0  0  0  0  0  0  0  0  0
    4.3840   10.5840   56.3790 O   0  0  0  0  0  0  0  0  0  0  0  0
    5.2480   11.2360   54.2520 O   0  0  0  0  0  0  0  0  0  0  0  0
    1.7930    0.0180   51.2470 S   0  0  0  0  0  0  0  0  0  0  0  0
  1  2  2  0
  1  3  1  0
  2  4  1  0
  3  5  2  0
  4 13  2  0
  5 13  1  0
  6  9  2  0
  6 15  1  0
  7 10  2  0
  7 14  1  0
  8 11  1  0
  8 14  2  0
  9 16  1  0
 10 18  1  0
 11 18  2  0
 12 15  2  0
 12 17  1  0
 13 21  1  0
 14 22  1  0
 15 23  1  0
 16 17  2  0
 16 28  1  0
 17 29  1  0
 18 30  1  0
 19 22  1  0
 19 23  1  0
 19 25  2  0
 20 28  1  0
 20 29  1  0
 21 24  1  0
 24 30  1  0
 26 30  2  0
 27 30  2  0
M  END
>  <washed_aromatic_smiles>  (692) 
c1ccc(cc1)CNS(=O)(=O)c2ccc(cc2)NC(=O)Nc3ccc4c(c3)OCO4

>  <name>  (692) 
neg288446

$$$$
neg231728
     RDKit          3D

 38 40  0  0  0  0  0  0  0  0999 V2000
    4.8330   11.0580   58.0460 C   0  0  0  0  0  0  0  0  0  0  0  0
    4.5850    0.4580   56.7740 C   0  0  0  0  0  0  0  0  0  0  0  0
    5.0280    9.6820   58.0030 C   0  0  0  0  0  0  0  0  0  0  0  0
    4.8140   11.7940   56.8650 C   0  0  0  0  0  0  0  0  0  0  0  0
    4.5000   -0.7270   56.0590 C   0  0  0  0  0  0  0  0  0  0  0  0
    3.7200    1.4980   56.4630 C   0  0  0  0  0  0  0  0  0  0  0  0
    5.2100    9.0440   56.7810 C   0  0  0  0  0  0  0  0  0  0  0  0
    4.9850   11.1530   55.6420 C   0  0  0  0  0  0  0  0  0  0  0  0
    3.5680   -0.8460   55.0270 C   0  0  0  0  0  0  0  0  0  0  0  0
    2.7510    1.3360   55.4770 C   0  0  0  0  0  0  0  0  0  0  0  0
    5.1910    9.7760   55.5930 C   0  0  0  0  0  0  0  0  0  0  0  0
    2.6550    0.1490   54.7600 C   0  0  0  0  0  0  0  0  0  0  0  0
    3.6260    7.5210   53.8880 C   0  0  0  0  0  0  0  0  0  0  0  0
    2.1980   -0.5150   51.0480 C   0  0  0  0  0  0  0  0  0  0  0  0
    1.9770    7.5450   52.1900 C   0  0  0  0  0  0  0  0  0  0  0  0
    3.7420    5.6960   52.1950 C   0  0  0  0  0  0  0  0  0  0  0  0
    0.0300    0.5980   50.8450 C   0  0  0  0  0  0  0  0  0  0  0  0
    0.9540   -0.1470   48.7960 C   0  0  0  0  0  0  0  0  0  0  0  0
    0.5990    6.9240   52.3990 C   0  0  0  0  0  0  0  0  0  0  0  0
    3.8660    5.6080   50.5810 C   0  0  0  0  0  0  0  0  0  0  0  0
    0.5470    1.8960   51.4140 C   0  0  0  0  0  0  0  0  0  0  0  0
    1.0710    1.2620   48.1280 C   0  0  0  0  0  0  0  0  0  0  0  0
    0.7260    5.5140   50.3960 C   0  0  0  0  0  0  0  0  0  0  0  0
    3.3200    4.3150   48.5700 C   0  0  0  0  0  0  0  0  0  0  0  0
    0.9690    4.2710   51.2120 C   0  0  0  0  0  0  0  0  0  0  0  0
    2.1950    3.3850   48.0460 C   0  0  0  0  0  0  0  0  0  0  0  0
    5.4430    9.0970   54.2630 C   0  0  0  0  0  0  0  0  0  0  0  0
    1.5980   -0.1450   53.7100 C   0  0  0  0  0  0  0  0  0  0  0  0
    3.0460    6.8510   52.8470 N   0  0  0  0  0  0  0  0  0  0  0  0
    1.0820   -0.1640   50.2710 N   0  0  0  0  0  0  0  0  0  0  0  0
    3.5750    7.1130   55.0380 O   0  0  0  0  0  0  0  0  0  0  0  0
    3.2420   -0.8770   50.5580 O   0  0  0  0  0  0  0  0  0  0  0  0
    0.0150    6.4650   51.1910 O   0  0  0  0  0  0  0  0  0  0  0  0
    3.3750    4.3920   49.9990 O   0  0  0  0  0  0  0  0  0  0  0  0
    1.1120    2.9540   50.6310 O   0  0  0  0  0  0  0  0  0  0  0  0
    2.2130    2.0340   48.5360 O   0  0  0  0  0  0  0  0  0  0  0  0
    4.2480    8.6780   53.5670 O   0  0  0  0  0  0  0  0  0  0  0  0
    2.2060   -0.4500   52.4170 O   0  0  0  0  0  0  0  0  0  0  0  0
  1  3  2  0
  1  4  1  0
  2  5  2  0
  2  6  1  0
  3  7  1  0
  4  8  2  0
  5  9  1  0
  6 10  2  0
  7 11  2  0
  8 11  1  0
  9 12  2  0
 10 12  1  0
 11 27  1  0
 12 28  1  0
 13 29  1  0
 13 31  2  0
 13 37  1  0
 14 30  1  0
 14 32  2  0
 14 38  1  0
 15 19  1  0
 15 29  1  0
 16 20  1  0
 16 29  1  0
 17 21  1  0
 17 30  1  0
 18 22  1  0
 18 30  1  0
 19 33  1  0
 20 34  1  0
 21 35  1  0
 22 36  1  0
 23 25  1  0
 23 33  1  0
 24 26  1  0
 24 34  1  0
 25 35  1  0
 26 36  1  0
 27 37  1  0
 28 38  1  0
M  END
>  <washed_aromatic_smiles>  (693) 
c1ccc(cc1)COC(=O)N2CCOCCOCCN(CCOCCOCC2)C(=O)OCc3ccccc3

>  <name>  (693) 
neg231728

$$$$
neg82073
     RDKit          3D

 27 29  0  0  0  0  0  0  0  0999 V2000
    5.4880   13.0610   53.4910 C   0  0  0  0  0  0  0  0  0  0  0  0
   -0.2420    8.6170   56.5670 C   0  0  0  0  0  0  0  0  0  0  0  0
    3.2830    5.1480   48.3720 C   0  0  0  0  0  0  0  0  0  0  0  0
    5.7690   11.7720   53.0510 C   0  0  0  0  0  0  0  0  0  0  0  0
    5.0370   13.2710   54.7900 C   0  0  0  0  0  0  0  0  0  0  0  0
    0.7120    8.9070   57.5080 C   0  0  0  0  0  0  0  0  0  0  0  0
    2.8400    3.8340   48.2340 C   0  0  0  0  0  0  0  0  0  0  0  0
    0.1260    8.5310   55.2310 C   0  0  0  0  0  0  0  0  0  0  0  0
    3.3740    5.7450   49.6010 C   0  0  0  0  0  0  0  0  0  0  0  0
    5.5670   10.6920   53.9000 C   0  0  0  0  0  0  0  0  0  0  0  0
    4.8430   12.1910   55.6420 C   0  0  0  0  0  0  0  0  0  0  0  0
    2.0480    9.1010   57.1530 C   0  0  0  0  0  0  0  0  0  0  0  0
    2.5400    3.0900   49.3690 C   0  0  0  0  0  0  0  0  0  0  0  0
    1.4550    8.6970   54.8460 C   0  0  0  0  0  0  0  0  0  0  0  0
    3.0550    5.0380   50.7500 C   0  0  0  0  0  0  0  0  0  0  0  0
    5.0960   10.8980   55.1940 C   0  0  0  0  0  0  0  0  0  0  0  0
    2.4280    8.9370   55.8280 C   0  0  0  0  0  0  0  0  0  0  0  0
    2.6920    3.6920   50.6110 C   0  0  0  0  0  0  0  0  0  0  0  0
    1.7280    8.6080   53.4400 C   0  0  0  0  0  0  0  0  0  0  0  0
    3.1520    5.7630   51.9900 C   0  0  0  0  0  0  0  0  0  0  0  0
    4.8150    9.7090   56.0720 C   0  0  0  0  0  0  0  0  0  0  0  0
    2.7960    7.8700   53.0890 N   0  0  0  0  0  0  0  0  0  0  0  0
    2.6590    7.0260   51.9570 N   0  0  0  0  0  0  0  0  0  0  0  0
    0.9630    9.0510   52.5830 O   0  0  0  0  0  0  0  0  0  0  0  0
    3.6960    5.3500   53.0090 O   0  0  0  0  0  0  0  0  0  0  0  0
    3.7580    8.9240   55.4960 O   0  0  0  0  0  0  0  0  0  0  0  0
    2.5300    2.9120   51.7000 F   0  0  0  0  0  0  0  0  0  0  0  0
  1  4  2  0
  1  5  1  0
  2  6  2  0
  2  8  1  0
  3  7  2  0
  3  9  1  0
  4 10  1  0
  5 11  2  0
  6 12  1  0
  7 13  1  0
  8 14  2  0
  9 15  2  0
 10 16  2  0
 11 16  1  0
 12 17  2  0
 13 18  2  0
 14 17  1  0
 14 19  1  0
 15 18  1  0
 15 20  1  0
 16 21  1  0
 17 26  1  0
 18 27  1  0
 19 22  1  0
 19 24  2  0
 20 23  1  0
 20 25  2  0
 21 26  1  0
 22 23  1  0
M  END
>  <washed_aromatic_smiles>  (694) 
c1ccc(cc1)COc2ccccc2C(=O)NNC(=O)c3ccccc3F

>  <name>  (694) 
neg82073

$$$$
neg55912
     RDKit          3D

 25 27  0  0  0  0  0  0  0  0999 V2000
    5.1050    9.5970   56.8640 C   0  0  0  0  0  0  0  0  0  0  0  0
    5.2540    8.9010   55.6700 C   0  0  0  0  0  0  0  0  0  0  0  0
    3.8350    9.9220   57.3200 C   0  0  0  0  0  0  0  0  0  0  0  0
    2.8260    4.4390   52.0530 C   0  0  0  0  0  0  0  0  0  0  0  0
    1.4100    4.3540   50.1320 C   0  0  0  0  0  0  0  0  0  0  0  0
    4.1350    8.5320   54.9350 C   0  0  0  0  0  0  0  0  0  0  0  0
    2.7150    9.5470   56.5850 C   0  0  0  0  0  0  0  0  0  0  0  0
    2.3440    5.6790   52.3720 C   0  0  0  0  0  0  0  0  0  0  0  0
    0.8380    5.5500   50.5280 C   0  0  0  0  0  0  0  0  0  0  0  0
    2.3360    3.7190   50.9600 C   0  0  0  0  0  0  0  0  0  0  0  0
    2.8540    8.8660   55.3760 C   0  0  0  0  0  0  0  0  0  0  0  0
    1.2650    6.1790   51.6850 C   0  0  0  0  0  0  0  0  0  0  0  0
    2.7070    2.3370   50.6650 C   0  0  0  0  0  0  0  0  0  0  0  0
    1.9340   -0.8060   53.1460 C   0  0  0  0  0  0  0  0  0  0  0  0
    1.7910    0.6320   53.6000 C   0  0  0  0  0  0  0  0  0  0  0  0
    2.1720   -0.8210   51.6350 C   0  0  0  0  0  0  0  0  0  0  0  0
    2.9240    1.5160   53.1020 C   0  0  0  0  0  0  0  0  0  0  0  0
    3.3790    0.0500   51.2850 C   0  0  0  0  0  0  0  0  0  0  0  0
    1.6190    8.4170   54.6070 C   0  0  0  0  0  0  0  0  0  0  0  0
    0.5350    7.2970   52.3380 C   0  0  0  0  0  0  0  0  0  0  0  0
    3.1340    1.4370   51.6450 N   0  0  0  0  0  0  0  0  0  0  0  0
    2.6200    1.9190   49.5100 O   0  0  0  0  0  0  0  0  0  0  0  0
    2.7720    8.6720   52.2790 O   0  0  0  0  0  0  0  0  0  0  0  0
    0.6740    9.8400   52.5720 O   0  0  0  0  0  0  0  0  0  0  0  0
    1.4710    8.7060   52.8530 S   0  0  0  0  0  0  0  0  0  0  0  0
  1  2  2  0
  1  3  1  0
  2  6  1  0
  3  7  2  0
  4  8  2  0
  4 10  1  0
  5  9  1  0
  5 10  2  0
  6 11  2  0
  7 11  1  0
  8 12  1  0
  9 12  2  0
 10 13  1  0
 11 19  1  0
 12 20  1  0
 13 21  1  0
 13 22  2  0
 14 15  1  0
 14 16  1  0
 15 17  1  0
 16 18  1  0
 17 21  1  0
 18 21  1  0
 19 25  1  0
 20 25  1  0
 23 25  2  0
 24 25  2  0
M  END
>  <washed_aromatic_smiles>  (695) 
c1ccc(cc1)CS(=O)(=O)Cc2ccc(cc2)C(=O)N3CCCCC3

>  <name>  (695) 
neg55912

$$$$
neg64585
     RDKit          3D

 28 30  0  0  0  0  0  0  0  0999 V2000
    4.4380   10.3140   57.8230 C   0  0  0  0  0  0  0  0  0  0  0  0
    3.3060   10.4730   57.0340 C   0  0  0  0  0  0  0  0  0  0  0  0
    5.3510    9.3130   57.5140 C   0  0  0  0  0  0  0  0  0  0  0  0
    3.0780    9.6250   55.9590 C   0  0  0  0  0  0  0  0  0  0  0  0
    5.1430    8.5060   56.4000 C   0  0  0  0  0  0  0  0  0  0  0  0
    1.9120    3.4550   50.9530 C   0  0  0  0  0  0  0  0  0  0  0  0
    1.8130    4.1460   48.6560 C   0  0  0  0  0  0  0  0  0  0  0  0
    1.3560    2.2380   50.6110 C   0  0  0  0  0  0  0  0  0  0  0  0
    1.4020    2.8550   48.2990 C   0  0  0  0  0  0  0  0  0  0  0  0
    3.3290    0.4760   53.1720 C   0  0  0  0  0  0  0  0  0  0  0  0
    2.5560   -0.6310   53.2790 C   0  0  0  0  0  0  0  0  0  0  0  0
    3.8330    0.8500   51.8900 C   0  0  0  0  0  0  0  0  0  0  0  0
    4.0170    8.6710   55.5990 C   0  0  0  0  0  0  0  0  0  0  0  0
    2.0610    4.4460   49.9990 C   0  0  0  0  0  0  0  0  0  0  0  0
    1.1640    1.8780   49.2780 C   0  0  0  0  0  0  0  0  0  0  0  0
    2.3280   -0.6130   50.9050 C   0  0  0  0  0  0  0  0  0  0  0  0
    2.6800    6.1490   51.7260 C   0  0  0  0  0  0  0  0  0  0  0  0
    3.8090    7.8230   54.3580 C   0  0  0  0  0  0  0  0  0  0  0  0
    1.9080    7.2810   52.3740 C   0  0  0  0  0  0  0  0  0  0  0  0
    2.2040   -1.2760   52.1190 N   0  0  0  0  0  0  0  0  0  0  0  0
    3.3820    0.3240   50.8080 N   0  0  0  0  0  0  0  0  0  0  0  0
    2.3320    5.7790   50.4340 N   0  0  0  0  0  0  0  0  0  0  0  0
    1.3430   -0.7630   50.0990 N   0  0  0  0  0  0  0  0  0  0  0  0
    3.4970    5.5080   52.3580 O   0  0  0  0  0  0  0  0  0  0  0  0
    1.2570   -0.1860   47.6270 O   0  0  0  0  0  0  0  0  0  0  0  0
   -0.7150    0.0640   48.9800 O   0  0  0  0  0  0  0  0  0  0  0  0
    2.9250    8.6670   52.9970 S   0  0  0  0  0  0  0  0  0  0  0  0
    0.7000    0.1630   48.8920 S   0  0  0  0  0  0  0  0  0  0  0  0
  1  2  2  0
  1  3  1  0
  2  4  1  0
  3  5  2  0
  4 13  2  0
  5 13  1  0
  6  8  2  0
  6 14  1  0
  7  9  1  0
  7 14  2  0
  8 15  1  0
  9 15  2  0
 10 11  2  0
 10 12  1  0
 11 20  1  0
 12 21  2  0
 13 18  1  0
 14 22  1  0
 15 28  1  0
 16 20  1  0
 16 21  1  0
 16 23  2  0
 17 19  1  0
 17 22  1  0
 17 24  2  0
 18 27  1  0
 19 27  1  0
 23 28  1  0
 25 28  2  0
 26 28  2  0
M  END
>  <washed_aromatic_smiles>  (696) 
c1ccc(cc1)CSCC(=O)Nc2ccc(cc2)S(=O)(=O)Nc3ncccn3

>  <name>  (696) 
neg64585

$$$$
neg38167
     RDKit          3D

 28 31  0  0  0  0  0  0  0  0999 V2000
    2.0070    8.5970   54.6100 C   0  0  0  0  0  0  0  0  0  0  0  0
    2.8340   -0.7700   53.7710 C   0  0  0  0  0  0  0  0  0  0  0  0
   -0.6960    0.6200   47.3330 C   0  0  0  0  0  0  0  0  0  0  0  0
    3.2650    8.0370   54.4260 C   0  0  0  0  0  0  0  0  0  0  0  0
    0.9290    8.1680   53.8390 C   0  0  0  0  0  0  0  0  0  0  0  0
    2.2060   -0.7130   52.5390 C   0  0  0  0  0  0  0  0  0  0  0  0
    3.0720    0.4020   54.4610 C   0  0  0  0  0  0  0  0  0  0  0  0
   -0.1360   -0.2210   48.2710 C   0  0  0  0  0  0  0  0  0  0  0  0
   -0.0980    1.8270   47.0170 C   0  0  0  0  0  0  0  0  0  0  0  0
    3.4350    7.0260   53.4940 C   0  0  0  0  0  0  0  0  0  0  0  0
    1.1020    7.1520   52.9060 C   0  0  0  0  0  0  0  0  0  0  0  0
    1.9340    0.5210   51.9700 C   0  0  0  0  0  0  0  0  0  0  0  0
    2.8530    1.6140   53.8300 C   0  0  0  0  0  0  0  0  0  0  0  0
    1.0160    0.1610   48.9120 C   0  0  0  0  0  0  0  0  0  0  0  0
    0.9750    2.2710   47.7570 C   0  0  0  0  0  0  0  0  0  0  0  0
    2.8590    4.1640   52.3700 C   0  0  0  0  0  0  0  0  0  0  0  0
    2.5050    5.5100   50.5160 C   0  0  0  0  0  0  0  0  0  0  0  0
    2.3570    6.5520   52.7490 C   0  0  0  0  0  0  0  0  0  0  0  0
    2.4980    1.6910   52.4710 C   0  0  0  0  0  0  0  0  0  0  0  0
    2.5390    5.4070   51.8770 C   0  0  0  0  0  0  0  0  0  0  0  0
    1.5280    1.4450   48.7270 C   0  0  0  0  0  0  0  0  0  0  0  0
    2.6420    2.9760   51.6940 C   0  0  0  0  0  0  0  0  0  0  0  0
    2.7840    4.4070   49.7160 C   0  0  0  0  0  0  0  0  0  0  0  0
    3.3210    4.6750   48.3770 C   0  0  0  0  0  0  0  0  0  0  0  0
    2.7360    1.8990   49.4930 C   0  0  0  0  0  0  0  0  0  0  0  0
    2.6570    3.1180   50.3090 N   0  0  0  0  0  0  0  0  0  0  0  0
    3.4220    5.8840   48.0580 O   0  0  0  0  0  0  0  0  0  0  0  0
    3.7580    3.7900   47.5990 O   0  0  0  0  0  0  0  0  0  0  0  0
  1  4  2  0
  1  5  1  0
  2  6  2  0
  2  7  1  0
  3  8  2  0
  3  9  1  0
  4 10  1  0
  5 11  2  0
  6 12  1  0
  7 13  2  0
  8 14  1  0
  9 15  2  0
 10 18  2  0
 11 18  1  0
 12 19  2  0
 13 19  1  0
 14 21  2  0
 15 21  1  0
 16 20  2  0
 16 22  1  0
 17 20  1  0
 17 23  2  0
 18 20  1  0
 19 22  1  0
 21 25  1  0
 22 26  2  0
 23 24  1  0
 23 26  1  0
 24 27  1  0
 24 28  2  0
 25 26  1  0
M  CHG  2  26   1  27  -1
M  END
>  <washed_aromatic_smiles>  (697) 
c1ccc(cc1)C[n+]2c(cc(cc2C(=O)O)c3ccccc3)c4ccccc4

>  <name>  (697) 
neg38167

$$$$
neg37665
     RDKit          3D

 25 27  0  0  0  0  0  0  0  0999 V2000
    3.4670   -0.4690   55.0100 C   0  0  0  0  0  0  0  0  0  0  0  0
    1.8880    7.9980   54.2470 C   0  0  0  0  0  0  0  0  0  0  0  0
    3.0330   -1.2480   53.9500 C   0  0  0  0  0  0  0  0  0  0  0  0
    3.2070    0.8850   54.9840 C   0  0  0  0  0  0  0  0  0  0  0  0
    1.0100    7.7970   53.1840 C   0  0  0  0  0  0  0  0  0  0  0  0
    3.1380    7.3810   54.2460 C   0  0  0  0  0  0  0  0  0  0  0  0
    2.2010   -0.7460   52.9720 C   0  0  0  0  0  0  0  0  0  0  0  0
    2.4880    1.4150   53.9240 C   0  0  0  0  0  0  0  0  0  0  0  0
    1.3890    7.0020   52.1090 C   0  0  0  0  0  0  0  0  0  0  0  0
    3.5190    6.5810   53.1730 C   0  0  0  0  0  0  0  0  0  0  0  0
    1.8580    0.5920   52.9850 C   0  0  0  0  0  0  0  0  0  0  0  0
    2.6600    6.4250   52.0940 C   0  0  0  0  0  0  0  0  0  0  0  0
    1.4920    1.8800   50.8630 C   0  0  0  0  0  0  0  0  0  0  0  0
    1.3260    3.2690   50.5930 C   0  0  0  0  0  0  0  0  0  0  0  0
    2.6930    3.0830   48.8790 C   0  0  0  0  0  0  0  0  0  0  0  0
    3.3160    6.3130   49.7480 C   0  0  0  0  0  0  0  0  0  0  0  0
    0.8490    1.0670   51.9490 C   0  0  0  0  0  0  0  0  0  0  0  0
    3.2020    5.6760   48.3620 C   0  0  0  0  0  0  0  0  0  0  0  0
    2.2820    1.1690   50.1070 N   0  0  0  0  0  0  0  0  0  0  0  0
    2.9140    1.7960   49.1370 N   0  0  0  0  0  0  0  0  0  0  0  0
    1.7460    3.7450   49.4410 N   0  0  0  0  0  0  0  0  0  0  0  0
    3.0950    5.6960   50.9520 N   0  0  0  0  0  0  0  0  0  0  0  0
    0.8220    4.1700   51.3030 O   0  0  0  0  0  0  0  0  0  0  0  0
    3.4770    7.5010   49.7920 O   0  0  0  0  0  0  0  0  0  0  0  0
    3.8000    3.9970   47.9300 S   0  0  0  0  0  0  0  0  0  0  0  0
  1  3  2  0
  1  4  1  0
  2  5  2  0
  2  6  1  0
  3  7  1  0
  4  8  2  0
  5  9  1  0
  6 10  2  0
  7 11  2  0
  8 11  1  0
  9 12  2  0
 10 12  1  0
 11 17  1  0
 12 22  1  0
 13 14  2  0
 13 17  1  0
 13 19  1  0
 14 21  1  0
 14 23  1  0
 15 20  1  0
 15 21  2  0
 15 25  1  0
 16 18  1  0
 16 22  1  0
 16 24  2  0
 18 25  1  0
 19 20  2  0
M  CHG  1  23  -1
M  END
>  <washed_aromatic_smiles>  (698) 
c1ccc(cc1)Cc2c(=O)[nH]c(nn2)SCC(=O)Nc3ccccc3

>  <name>  (698) 
neg37665

$$$$
neg128954
     RDKit          3D

 27 30  0  0  0  0  0  0  0  0999 V2000
    3.5600    5.5480   48.5130 C   0  0  0  0  0  0  0  0  0  0  0  0
    3.6660    4.2540   48.0170 C   0  0  0  0  0  0  0  0  0  0  0  0
    2.6450    5.8340   49.4840 C   0  0  0  0  0  0  0  0  0  0  0  0
    2.8470   -1.2670   53.2750 C   0  0  0  0  0  0  0  0  0  0  0  0
    2.3850   -1.3720   51.9510 C   0  0  0  0  0  0  0  0  0  0  0  0
    3.2210    9.1640   52.9710 C   0  0  0  0  0  0  0  0  0  0  0  0
    4.0950    8.6630   55.1290 C   0  0  0  0  0  0  0  0  0  0  0  0
    2.8640    3.2760   48.5690 C   0  0  0  0  0  0  0  0  0  0  0  0
    1.6730    4.9230   49.8330 C   0  0  0  0  0  0  0  0  0  0  0  0
    3.0120   -0.0470   53.8860 C   0  0  0  0  0  0  0  0  0  0  0  0
    2.2020   -0.2490   51.1800 C   0  0  0  0  0  0  0  0  0  0  0  0
    2.9790    7.8170   52.7210 C   0  0  0  0  0  0  0  0  0  0  0  0
    3.7960    7.3320   54.9130 C   0  0  0  0  0  0  0  0  0  0  0  0
    3.9450    9.5880   54.0970 C   0  0  0  0  0  0  0  0  0  0  0  0
    1.9030    3.6120   49.4950 C   0  0  0  0  0  0  0  0  0  0  0  0
    2.8190    1.0880   53.1110 C   0  0  0  0  0  0  0  0  0  0  0  0
    2.4780    0.9720   51.7920 C   0  0  0  0  0  0  0  0  0  0  0  0
    3.4390    6.8710   53.6340 C   0  0  0  0  0  0  0  0  0  0  0  0
    2.8510    3.0920   52.3580 C   0  0  0  0  0  0  0  0  0  0  0  0
    4.5640   10.9170   54.1980 C   0  0  0  0  0  0  0  0  0  0  0  0
    1.4260    2.5420   50.3870 C   0  0  0  0  0  0  0  0  0  0  0  0
    2.9500    4.6760   52.2910 C   0  0  0  0  0  0  0  0  0  0  0  0
    2.9670    2.3850   53.4270 N   0  0  0  0  0  0  0  0  0  0  0  0
    2.4350    2.2390   51.3390 N   0  0  0  0  0  0  0  0  0  0  0  0
    3.6910    5.5000   53.2750 N   0  0  0  0  0  0  0  0  0  0  0  0
    5.0550   11.2980   55.2980 O   0  0  0  0  0  0  0  0  0  0  0  0
    4.6180   11.6760   53.1920 O   0  0  0  0  0  0  0  0  0  0  0  0
  1  2  2  0
  1  3  1  0
  2  8  1  0
  3  9  2  0
  4  5  2  0
  4 10  1  0
  5 11  1  0
  6 12  2  0
  6 14  1  0
  7 13  1  0
  7 14  2  0
  8 15  2  0
  9 15  1  0
 10 16  2  0
 11 17  2  0
 12 18  1  0
 13 18  2  0
 14 20  1  0
 15 21  1  0
 16 17  1  0
 16 23  1  0
 17 24  1  0
 18 25  1  0
 19 22  1  0
 19 23  2  0
 19 24  1  0
 20 26  1  0
 20 27  2  0
 21 24  1  0
 22 25  1  0
M  CHG  1  26  -1
M  END
>  <washed_aromatic_smiles>  (699) 
c1ccc(cc1)Cn2c3ccccc3nc2CNc4ccc(cc4)C(=O)O

>  <name>  (699) 
neg128954

$$$$
neg38678
     RDKit          3D

 26 28  0  0  0  0  0  0  0  0999 V2000
    1.3530    1.2700   48.7670 C   0  0  0  0  0  0  0  0  0  0  0  0
    1.3070    2.5280   48.1710 C   0  0  0  0  0  0  0  0  0  0  0  0
    1.7750    1.1390   50.0880 C   0  0  0  0  0  0  0  0  0  0  0  0
    1.6470    3.6610   48.9000 C   0  0  0  0  0  0  0  0  0  0  0  0
    2.1130    2.2640   50.8300 C   0  0  0  0  0  0  0  0  0  0  0  0
    4.8670   10.5010   58.0260 C   0  0  0  0  0  0  0  0  0  0  0  0
    5.6050    8.2900   57.3400 C   0  0  0  0  0  0  0  0  0  0  0  0
    4.8210   10.8980   56.6900 C   0  0  0  0  0  0  0  0  0  0  0  0
    5.5540    8.6980   56.0140 C   0  0  0  0  0  0  0  0  0  0  0  0
    2.0060    3.5320   50.2510 C   0  0  0  0  0  0  0  0  0  0  0  0
    5.2760    9.2070   58.3240 C   0  0  0  0  0  0  0  0  0  0  0  0
    5.1820   10.0010   55.6780 C   0  0  0  0  0  0  0  0  0  0  0  0
    1.6680    8.1640   53.3780 C   0  0  0  0  0  0  0  0  0  0  0  0
    2.9330    5.7650   50.6420 C   0  0  0  0  0  0  0  0  0  0  0  0
    0.7850    5.2140   51.2620 C   0  0  0  0  0  0  0  0  0  0  0  0
    2.9410    6.9220   51.6550 C   0  0  0  0  0  0  0  0  0  0  0  0
    0.5890    6.3570   52.2460 C   0  0  0  0  0  0  0  0  0  0  0  0
    2.6540    9.3300   53.4890 C   0  0  0  0  0  0  0  0  0  0  0  0
    4.1490    9.2350   53.1980 C   0  0  0  0  0  0  0  0  0  0  0  0
    2.1160    4.6550   51.0950 N   0  0  0  0  0  0  0  0  0  0  0  0
    1.7180    7.2510   52.3860 N   0  0  0  0  0  0  0  0  0  0  0  0
    0.7490    8.1670   54.1990 O   0  0  0  0  0  0  0  0  0  0  0  0
    4.6560   11.7520   53.7750 O   0  0  0  0  0  0  0  0  0  0  0  0
    6.5340   10.2590   53.4440 O   0  0  0  0  0  0  0  0  0  0  0  0
    5.3780    8.8140   59.6090 F   0  0  0  0  0  0  0  0  0  0  0  0
    5.2160   10.4540   53.9440 S   0  0  0  0  0  0  0  0  0  0  0  0
  1  2  2  0
  1  3  1  0
  2  4  1  0
  3  5  2  0
  4 10  2  0
  5 10  1  0
  6  8  2  0
  6 11  1  0
  7  9  1  0
  7 11  2  0
  8 12  1  0
  9 12  2  0
 10 20  1  0
 11 25  1  0
 12 26  1  0
 13 18  1  0
 13 21  1  0
 13 22  2  0
 14 16  1  0
 14 20  1  0
 15 17  1  0
 15 20  1  0
 16 21  1  0
 17 21  1  0
 18 19  1  0
 19 26  1  0
 23 26  2  0
 24 26  2  0
M  END
>  <washed_aromatic_smiles>  (700) 
c1ccc(cc1)N2CCN(CC2)C(=O)CCS(=O)(=O)c3ccc(cc3)F

>  <name>  (700) 
neg38678

$$$$
neg305115
     RDKit          3D

 26 28  0  0  0  0  0  0  0  0999 V2000
    1.0670    8.9720   57.1260 C   0  0  0  0  0  0  0  0  0  0  0  0
    2.3630    9.0300   56.6130 C   0  0  0  0  0  0  0  0  0  0  0  0
   -0.0090    8.6950   56.3030 C   0  0  0  0  0  0  0  0  0  0  0  0
    1.0250   -0.5760   48.9330 C   0  0  0  0  0  0  0  0  0  0  0  0
    1.4720   -0.9580   50.2010 C   0  0  0  0  0  0  0  0  0  0  0  0
    2.5980    8.6470   55.2960 C   0  0  0  0  0  0  0  0  0  0  0  0
    0.2170    8.4150   54.9620 C   0  0  0  0  0  0  0  0  0  0  0  0
    0.8740    0.7700   48.6320 C   0  0  0  0  0  0  0  0  0  0  0  0
    1.3620    1.2840   50.9490 C   0  0  0  0  0  0  0  0  0  0  0  0
    1.6140   -0.0380   51.2300 C   0  0  0  0  0  0  0  0  0  0  0  0
    1.5210    8.2190   54.4990 C   0  0  0  0  0  0  0  0  0  0  0  0
    1.1510    1.6930   49.6330 C   0  0  0  0  0  0  0  0  0  0  0  0
    2.3500    3.7840   49.9360 C   0  0  0  0  0  0  0  0  0  0  0  0
    3.0690    7.1760   52.8190 C   0  0  0  0  0  0  0  0  0  0  0  0
    0.6080    7.2240   52.3360 C   0  0  0  0  0  0  0  0  0  0  0  0
    3.1140    5.9460   51.9020 C   0  0  0  0  0  0  0  0  0  0  0  0
    0.8520    6.0960   51.3090 C   0  0  0  0  0  0  0  0  0  0  0  0
    2.4600    5.2400   49.6310 C   0  0  0  0  0  0  0  0  0  0  0  0
    2.0870   -0.4160   52.6270 C   0  0  0  0  0  0  0  0  0  0  0  0
    1.7160    7.4800   53.3000 N   0  0  0  0  0  0  0  0  0  0  0  0
    2.2100    6.1370   50.7820 N   0  0  0  0  0  0  0  0  0  0  0  0
    1.3660    3.0480   49.3130 N   0  0  0  0  0  0  0  0  0  0  0  0
    3.1180    3.2590   50.7060 O   0  0  0  0  0  0  0  0  0  0  0  0
    2.7100   -1.5900   52.6640 F   0  0  0  0  0  0  0  0  0  0  0  0
    2.9600    0.4730   53.1290 F   0  0  0  0  0  0  0  0  0  0  0  0
    1.0880   -0.4910   53.5050 F   0  0  0  0  0  0  0  0  0  0  0  0
  1  2  2  0
  1  3  1  0
  2  6  1  0
  3  7  2  0
  4  5  2  0
  4  8  1  0
  5 10  1  0
  6 11  2  0
  7 11  1  0
  8 12  2  0
  9 10  2  0
  9 12  1  0
 10 19  1  0
 11 20  1  0
 12 22  1  0
 13 18  1  0
 13 22  1  0
 13 23  2  0
 14 16  1  0
 14 20  1  0
 15 17  1  0
 15 20  1  0
 16 21  1  0
 17 21  1  0
 18 21  1  0
 19 24  1  0
 19 25  1  0
 19 26  1  0
M  END
>  <washed_aromatic_smiles>  (701) 
c1ccc(cc1)N2CCN(CC2)CC(=O)Nc3cccc(c3)C(F)(F)F

>  <name>  (701) 
neg305115

$$$$
neg269850
     RDKit          3D

 26 29  0  0  0  0  0  0  0  0999 V2000
    4.9280   11.7840   57.1910 C   0  0  0  0  0  0  0  0  0  0  0  0
    5.1500   11.7720   55.8170 C   0  0  0  0  0  0  0  0  0  0  0  0
    4.1220   10.8090   57.7740 C   0  0  0  0  0  0  0  0  0  0  0  0
    4.5810   10.7820   55.0260 C   0  0  0  0  0  0  0  0  0  0  0  0
    3.5330    9.8210   56.9910 C   0  0  0  0  0  0  0  0  0  0  0  0
    1.6460    1.3470   49.0380 C   0  0  0  0  0  0  0  0  0  0  0  0
    0.8120    0.5800   48.2320 C   0  0  0  0  0  0  0  0  0  0  0  0
    0.1010    1.1220   50.9220 C   0  0  0  0  0  0  0  0  0  0  0  0
    3.7740    9.7940   55.6150 C   0  0  0  0  0  0  0  0  0  0  0  0
    1.2690    1.6380   50.3520 C   0  0  0  0  0  0  0  0  0  0  0  0
   -0.3950    0.1650   48.7700 C   0  0  0  0  0  0  0  0  0  0  0  0
   -0.7480    0.4340   50.0730 C   0  0  0  0  0  0  0  0  0  0  0  0
    2.1170    3.8880   50.6200 C   0  0  0  0  0  0  0  0  0  0  0  0
    4.3440    8.0150   54.1980 C   0  0  0  0  0  0  0  0  0  0  0  0
    2.1340    9.0240   53.9220 C   0  0  0  0  0  0  0  0  0  0  0  0
    3.8280    6.8300   53.3880 C   0  0  0  0  0  0  0  0  0  0  0  0
    1.7340    7.9090   52.9350 C   0  0  0  0  0  0  0  0  0  0  0  0
   -2.5240   -0.4770   49.0290 C   0  0  0  0  0  0  0  0  0  0  0  0
    2.2520    4.9200   51.6990 C   0  0  0  0  0  0  0  0  0  0  0  0
    2.6930    6.2880   51.2160 C   0  0  0  0  0  0  0  0  0  0  0  0
    3.2550    8.7180   54.8610 N   0  0  0  0  0  0  0  0  0  0  0  0
    2.9230    7.2870   52.3020 N   0  0  0  0  0  0  0  0  0  0  0  0
    1.9970    2.5950   51.0720 N   0  0  0  0  0  0  0  0  0  0  0  0
    2.0110    4.1740   49.4420 O   0  0  0  0  0  0  0  0  0  0  0  0
   -1.4190   -0.3910   48.1010 O   0  0  0  0  0  0  0  0  0  0  0  0
   -2.0430    0.0760   50.3020 O   0  0  0  0  0  0  0  0  0  0  0  0
  1  2  2  0
  1  3  1  0
  2  4  1  0
  3  5  2  0
  4  9  2  0
  5  9  1  0
  6  7  2  0
  6 10  1  0
  7 11  1  0
  8 10  2  0
  8 12  1  0
  9 21  1  0
 10 23  1  0
 11 12  2  0
 11 25  1  0
 12 26  1  0
 13 19  1  0
 13 23  1  0
 13 24  2  0
 14 16  1  0
 14 21  1  0
 15 17  1  0
 15 21  1  0
 16 22  1  0
 17 22  1  0
 18 25  1  0
 18 26  1  0
 19 20  1  0
 20 22  1  0
M  CHG  1  22   1
M  END
>  <washed_aromatic_smiles>  (702) 
c1ccc(cc1)N2CCN(CC2)CCC(=O)Nc3ccc4c(c3)OCO4

>  <name>  (702) 
neg269850

$$$$
neg110862
     RDKit          3D

 25 27  0  0  0  0  0  0  0  0999 V2000
    0.5560    0.7130   48.0560 C   0  0  0  0  0  0  0  0  0  0  0  0
    0.6910    1.9140   47.3640 C   0  0  0  0  0  0  0  0  0  0  0  0
    1.0790    0.5810   49.3390 C   0  0  0  0  0  0  0  0  0  0  0  0
    5.1880   13.2870   55.7620 C   0  0  0  0  0  0  0  0  0  0  0  0
    1.3390    2.9930   47.9550 C   0  0  0  0  0  0  0  0  0  0  0  0
    1.7270    1.6510   49.9390 C   0  0  0  0  0  0  0  0  0  0  0  0
    4.7850   12.0160   55.3770 C   0  0  0  0  0  0  0  0  0  0  0  0
    5.5470   13.5320   57.0830 C   0  0  0  0  0  0  0  0  0  0  0  0
    5.0820   11.2330   57.6620 C   0  0  0  0  0  0  0  0  0  0  0  0
    1.8370    2.8690   49.2580 C   0  0  0  0  0  0  0  0  0  0  0  0
    4.6970   11.0060   56.3430 C   0  0  0  0  0  0  0  0  0  0  0  0
    5.5390   12.4990   58.0130 C   0  0  0  0  0  0  0  0  0  0  0  0
    4.3070    9.1140   54.8110 C   0  0  0  0  0  0  0  0  0  0  0  0
    1.2320    4.5660   50.7130 C   0  0  0  0  0  0  0  0  0  0  0  0
    3.0630    5.0410   49.2710 C   0  0  0  0  0  0  0  0  0  0  0  0
    1.6260    5.6150   51.7310 C   0  0  0  0  0  0  0  0  0  0  0  0
    3.5090    6.1500   50.2460 C   0  0  0  0  0  0  0  0  0  0  0  0
    2.8350    7.7460   52.1860 C   0  0  0  0  0  0  0  0  0  0  0  0
    3.4140    7.2120   53.5070 C   0  0  0  0  0  0  0  0  0  0  0  0
    2.3400    3.9710   49.9750 N   0  0  0  0  0  0  0  0  0  0  0  0
    2.4280    6.7110   51.1510 N   0  0  0  0  0  0  0  0  0  0  0  0
    4.1560    9.7500   56.0190 N   0  0  0  0  0  0  0  0  0  0  0  0
    3.3660    8.1510   54.6090 N   0  0  0  0  0  0  0  0  0  0  0  0
    5.2000    9.3790   54.0030 O   0  0  0  0  0  0  0  0  0  0  0  0
    6.1230   12.8370   59.5950 Cl  0  0  0  0  0  0  0  0  0  0  0  0
  1  2  2  0
  1  3  1  0
  2  5  1  0
  3  6  2  0
  4  7  2  0
  4  8  1  0
  5 10  2  0
  6 10  1  0
  7 11  1  0
  8 12  2  0
  9 11  2  0
  9 12  1  0
 10 20  1  0
 11 22  1  0
 12 25  1  0
 13 22  1  0
 13 23  1  0
 13 24  2  0
 14 16  1  0
 14 20  1  0
 15 17  1  0
 15 20  1  0
 16 21  1  0
 17 21  1  0
 18 19  1  0
 18 21  1  0
 19 23  1  0
M  CHG  1  21   1
M  END
>  <washed_aromatic_smiles>  (703) 
c1ccc(cc1)N2CCN(CC2)CCNC(=O)Nc3cccc(c3)Cl

>  <name>  (703) 
neg110862

$$$$
neg265690
     RDKit          3D

 30 33  0  0  0  0  0  0  0  0999 V2000
    5.0940    9.7500   58.5210 C   0  0  0  0  0  0  0  0  0  0  0  0
    5.3970    8.4920   58.0160 C   0  0  0  0  0  0  0  0  0  0  0  0
    4.1140   10.5220   57.9060 C   0  0  0  0  0  0  0  0  0  0  0  0
    4.7440    8.0250   56.8840 C   0  0  0  0  0  0  0  0  0  0  0  0
    3.4370   10.0560   56.7840 C   0  0  0  0  0  0  0  0  0  0  0  0
    2.6890    3.5820   50.0880 C   0  0  0  0  0  0  0  0  0  0  0  0
    2.9710    3.7250   52.4230 C   0  0  0  0  0  0  0  0  0  0  0  0
    2.9280    2.2100   50.1930 C   0  0  0  0  0  0  0  0  0  0  0  0
    3.0540    2.3560   52.5550 C   0  0  0  0  0  0  0  0  0  0  0  0
    3.7880    8.8210   56.2360 C   0  0  0  0  0  0  0  0  0  0  0  0
    2.6440    4.3540   51.2410 C   0  0  0  0  0  0  0  0  0  0  0  0
    2.9950    1.5820   51.4280 C   0  0  0  0  0  0  0  0  0  0  0  0
    0.4900    1.6610   48.3890 C   0  0  0  0  0  0  0  0  0  0  0  0
    0.3430    0.3350   47.6780 C   0  0  0  0  0  0  0  0  0  0  0  0
    0.2100    1.3130   49.8730 C   0  0  0  0  0  0  0  0  0  0  0  0
    0.6530   -0.7540   48.7110 C   0  0  0  0  0  0  0  0  0  0  0  0
    1.9360    8.6590   54.3980 C   0  0  0  0  0  0  0  0  0  0  0  0
    4.1680    7.9880   53.9720 C   0  0  0  0  0  0  0  0  0  0  0  0
    1.3870    7.5080   53.4940 C   0  0  0  0  0  0  0  0  0  0  0  0
    3.6960    6.6530   53.4250 C   0  0  0  0  0  0  0  0  0  0  0  0
    0.5530   -0.1210   50.0900 C   0  0  0  0  0  0  0  0  0  0  0  0
    3.2380    8.3570   55.0200 N   0  0  0  0  0  0  0  0  0  0  0  0
    2.4170    6.7220   52.7520 N   0  0  0  0  0  0  0  0  0  0  0  0
    1.3560   -0.5110   51.2460 N   0  0  0  0  0  0  0  0  0  0  0  0
    3.0840    6.7330   50.3080 O   0  0  0  0  0  0  0  0  0  0  0  0
    0.7990    6.1360   50.9100 O   0  0  0  0  0  0  0  0  0  0  0  0
    3.8060   -0.7200   50.6160 O   0  0  0  0  0  0  0  0  0  0  0  0
    3.1740   -0.5290   52.9380 O   0  0  0  0  0  0  0  0  0  0  0  0
    2.1900    6.0950   51.2130 S   0  0  0  0  0  0  0  0  0  0  0  0
    2.9310   -0.1760   51.5810 S   0  0  0  0  0  0  0  0  0  0  0  0
  1  2  2  0
  1  3  1  0
  2  4  1  0
  3  5  2  0
  4 10  2  0
  5 10  1  0
  6  8  2  0
  6 11  1  0
  7  9  1  0
  7 11  2  0
  8 12  1  0
  9 12  2  0
 10 22  1  0
 11 29  1  0
 12 30  1  0
 13 14  1  0
 13 15  1  0
 14 16  1  0
 15 21  1  0
 16 21  1  0
 17 19  1  0
 17 22  1  0
 18 20  1  0
 18 22  1  0
 19 23  1  0
 20 23  1  0
 21 24  1  0
 23 29  1  0
 24 30  1  0
 25 29  2  0
 26 29  2  0
 27 30  2  0
 28 30  2  0
M  END
>  <washed_aromatic_smiles>  (704) 
c1ccc(cc1)N2CCN(CC2)S(=O)(=O)c3ccc(cc3)S(=O)(=O)NC4CCCC4

>  <name>  (704) 
neg265690

$$$$
neg235138
     RDKit          3D

 27 30  0  0  0  0  0  0  0  0999 V2000
    4.8900    0.2760   57.3710 C   0  0  0  0  0  0  0  0  0  0  0  0
    4.2250    1.4750   57.1380 C   0  0  0  0  0  0  0  0  0  0  0  0
    4.7000   -0.7950   56.5050 C   0  0  0  0  0  0  0  0  0  0  0  0
    3.3710    1.6110   56.0470 C   0  0  0  0  0  0  0  0  0  0  0  0
    3.8650   -0.6550   55.4010 C   0  0  0  0  0  0  0  0  0  0  0  0
    1.9390    3.1750   47.7260 C   0  0  0  0  0  0  0  0  0  0  0  0
    1.2730    2.0130   48.0650 C   0  0  0  0  0  0  0  0  0  0  0  0
    1.4210    2.6320   50.3870 C   0  0  0  0  0  0  0  0  0  0  0  0
    3.2230    0.5520   55.1470 C   0  0  0  0  0  0  0  0  0  0  0  0
    2.3820    4.0280   48.7180 C   0  0  0  0  0  0  0  0  0  0  0  0
    2.0570    3.8030   50.0490 C   0  0  0  0  0  0  0  0  0  0  0  0
    1.0770    1.7150   49.4040 C   0  0  0  0  0  0  0  0  0  0  0  0
    3.2950    6.1430   49.2610 C   0  0  0  0  0  0  0  0  0  0  0  0
    2.8680    5.9810   50.6610 C   0  0  0  0  0  0  0  0  0  0  0  0
    3.1690    1.0130   52.6900 C   0  0  0  0  0  0  0  0  0  0  0  0
    1.4800   -0.3580   53.7300 C   0  0  0  0  0  0  0  0  0  0  0  0
    2.7980    0.1040   51.4600 C   0  0  0  0  0  0  0  0  0  0  0  0
    0.6100    0.0590   52.5570 C   0  0  0  0  0  0  0  0  0  0  0  0
    3.1610    5.1160   48.3900 N   0  0  0  0  0  0  0  0  0  0  0  0
    2.3540    4.7640   51.0270 N   0  0  0  0  0  0  0  0  0  0  0  0
    2.4530    0.6990   53.9760 N   0  0  0  0  0  0  0  0  0  0  0  0
    1.3250   -0.1320   51.3130 N   0  0  0  0  0  0  0  0  0  0  0  0
    3.6720    7.1690   48.7440 O   0  0  0  0  0  0  0  0  0  0  0  0
    2.8990    6.8510   51.5230 O   0  0  0  0  0  0  0  0  0  0  0  0
   -0.8920    0.2470   50.1400 O   0  0  0  0  0  0  0  0  0  0  0  0
    0.9110   -0.8210   48.9120 O   0  0  0  0  0  0  0  0  0  0  0  0
    0.5040    0.1300   49.8930 S   0  0  0  0  0  0  0  0  0  0  0  0
  1  2  2  0
  1  3  1  0
  2  4  1  0
  3  5  2  0
  4  9  2  0
  5  9  1  0
  6  7  2  0
  6 10  1  0
  7 12  1  0
  8 11  1  0
  8 12  2  0
  9 21  1  0
 10 11  2  0
 10 19  1  0
 11 20  1  0
 12 27  1  0
 13 14  1  0
 13 19  1  0
 13 23  2  0
 14 20  1  0
 14 24  2  0
 15 17  1  0
 15 21  1  0
 16 18  1  0
 16 21  1  0
 17 22  1  0
 18 22  1  0
 22 27  1  0
 25 27  2  0
 26 27  2  0
M  END
>  <washed_aromatic_smiles>  (705) 
c1ccc(cc1)N2CCN(CC2)S(=O)(=O)c3ccc4c(c3)[nH]c(=O)c(=O)[nH]4

>  <name>  (705) 
neg235138

$$$$
neg31604
     RDKit          3D

 31 34  0  0  0  0  0  0  0  0999 V2000
    2.1960   -1.5880   51.5360 C   0  0  0  0  0  0  0  0  0  0  0  0
    1.8040   -0.9420   50.3750 C   0  0  0  0  0  0  0  0  0  0  0  0
    2.7300   -0.9060   52.6060 C   0  0  0  0  0  0  0  0  0  0  0  0
    0.4090    8.6420   55.3780 C   0  0  0  0  0  0  0  0  0  0  0  0
    1.5570    8.8780   56.1110 C   0  0  0  0  0  0  0  0  0  0  0  0
    1.9620    0.4180   50.2670 C   0  0  0  0  0  0  0  0  0  0  0  0
    2.9110    0.4510   52.5080 C   0  0  0  0  0  0  0  0  0  0  0  0
    0.4830    8.0290   54.1500 C   0  0  0  0  0  0  0  0  0  0  0  0
    2.8090    7.5950   54.4860 C   0  0  0  0  0  0  0  0  0  0  0  0
    2.7410    8.2720   55.7140 C   0  0  0  0  0  0  0  0  0  0  0  0
    2.5150    1.1300   51.3340 C   0  0  0  0  0  0  0  0  0  0  0  0
    1.6760    7.4920   53.6890 C   0  0  0  0  0  0  0  0  0  0  0  0
    3.8060    8.2100   56.6760 C   0  0  0  0  0  0  0  0  0  0  0  0
    5.5010   11.9650   54.5810 C   0  0  0  0  0  0  0  0  0  0  0  0
    4.8190   12.6290   55.7840 C   0  0  0  0  0  0  0  0  0  0  0  0
    5.0150   10.5710   54.1470 C   0  0  0  0  0  0  0  0  0  0  0  0
    4.9190   11.8670   57.1090 C   0  0  0  0  0  0  0  0  0  0  0  0
    5.7870    9.3670   54.7140 C   0  0  0  0  0  0  0  0  0  0  0  0
    3.9790   10.6450   57.2400 C   0  0  0  0  0  0  0  0  0  0  0  0
    5.7850    9.1530   56.2630 C   0  0  0  0  0  0  0  0  0  0  0  0
    1.5210    3.1790   50.5670 C   0  0  0  0  0  0  0  0  0  0  0  0
    3.0460    3.1830   52.4100 C   0  0  0  0  0  0  0  0  0  0  0  0
    1.5420    4.7100   50.6050 C   0  0  0  0  0  0  0  0  0  0  0  0
    3.0980    4.7360   52.3230 C   0  0  0  0  0  0  0  0  0  0  0  0
    2.6460    2.5210   51.1970 N   0  0  0  0  0  0  0  0  0  0  0  0
    4.5240    9.3190   56.8670 N   0  0  0  0  0  0  0  0  0  0  0  0
    1.8380    5.2680   51.9350 N   0  0  0  0  0  0  0  0  0  0  0  0
    4.1990    7.1850   57.2260 O   0  0  0  0  0  0  0  0  0  0  0  0
    0.3660    7.1660   51.5270 O   0  0  0  0  0  0  0  0  0  0  0  0
    2.7760    7.4810   51.3570 O   0  0  0  0  0  0  0  0  0  0  0  0
    1.6640    6.8910   52.0140 S   0  0  0  0  0  0  0  0  0  0  0  0
  1  2  2  0
  1  3  1  0
  2  6  1  0
  3  7  2  0
  4  5  2  0
  4  8  1  0
  5 10  1  0
  6 11  2  0
  7 11  1  0
  8 12  2  0
  9 10  2  0
  9 12  1  0
 10 13  1  0
 11 25  1  0
 12 31  1  0
 13 26  1  0
 13 28  2  0
 14 15  1  0
 14 16  1  0
 15 17  1  0
 16 18  1  0
 17 19  1  0
 18 20  1  0
 19 26  1  0
 20 26  1  0
 21 23  1  0
 21 25  1  0
 22 24  1  0
 22 25  1  0
 23 27  1  0
 24 27  1  0
 27 31  1  0
 29 31  2  0
 30 31  2  0
M  END
>  <washed_aromatic_smiles>  (706) 
c1ccc(cc1)N2CCN(CC2)S(=O)(=O)c3cccc(c3)C(=O)N4CCCCCCC4

>  <name>  (706) 
neg31604

$$$$
neg277199
     RDKit          3D

 31 35  0  0  0  0  0  0  0  0999 V2000
   -0.2530   -0.2150   49.0880 C   0  0  0  0  0  0  0  0  0  0  0  0
    5.5510   12.9600   57.9460 C   0  0  0  0  0  0  0  0  0  0  0  0
   -0.8800    0.3280   50.2050 C   0  0  0  0  0  0  0  0  0  0  0  0
    1.0120   -0.7760   49.2210 C   0  0  0  0  0  0  0  0  0  0  0  0
    5.5830   12.1430   59.0700 C   0  0  0  0  0  0  0  0  0  0  0  0
    5.4400   12.3920   56.6840 C   0  0  0  0  0  0  0  0  0  0  0  0
   -0.2200    0.4180   51.4070 C   0  0  0  0  0  0  0  0  0  0  0  0
    1.6760   -0.7410   50.4480 C   0  0  0  0  0  0  0  0  0  0  0  0
    5.5550   10.7600   58.9370 C   0  0  0  0  0  0  0  0  0  0  0  0
    5.4150   11.0120   56.5380 C   0  0  0  0  0  0  0  0  0  0  0  0
    5.3340    2.1800   58.0560 C   0  0  0  0  0  0  0  0  0  0  0  0
    1.0550   -0.1100   51.5330 C   0  0  0  0  0  0  0  0  0  0  0  0
    5.5130   10.1740   57.6690 C   0  0  0  0  0  0  0  0  0  0  0  0
    4.4640    1.5110   57.2120 C   0  0  0  0  0  0  0  0  0  0  0  0
    3.6330    2.1950   56.3050 C   0  0  0  0  0  0  0  0  0  0  0  0
    4.6400    4.2520   57.2720 C   0  0  0  0  0  0  0  0  0  0  0  0
    2.3240    1.4150   52.4770 C   0  0  0  0  0  0  0  0  0  0  0  0
    2.6550   -0.6230   53.4360 C   0  0  0  0  0  0  0  0  0  0  0  0
    5.7090    7.8290   58.7340 C   0  0  0  0  0  0  0  0  0  0  0  0
    5.1890    8.1420   56.3170 C   0  0  0  0  0  0  0  0  0  0  0  0
    2.9800    1.9900   53.7080 C   0  0  0  0  0  0  0  0  0  0  0  0
    2.9160   -0.0940   54.9000 C   0  0  0  0  0  0  0  0  0  0  0  0
    5.8260    6.2980   58.4240 C   0  0  0  0  0  0  0  0  0  0  0  0
    4.3220    6.9350   56.5950 C   0  0  0  0  0  0  0  0  0  0  0  0
    5.4310    3.5090   58.0690 N   0  0  0  0  0  0  0  0  0  0  0  0
    3.6940    3.6070   56.4120 N   0  0  0  0  0  0  0  0  0  0  0  0
    1.6660    0.1830   52.7390 N   0  0  0  0  0  0  0  0  0  0  0  0
    5.6680    8.7550   57.5460 N   0  0  0  0  0  0  0  0  0  0  0  0
    2.8820    1.4370   55.1250 N   0  0  0  0  0  0  0  0  0  0  0  0
    4.8540    5.7590   57.4280 N   0  0  0  0  0  0  0  0  0  0  0  0
    4.5080    0.1820   57.2810 F   0  0  0  0  0  0  0  0  0  0  0  0
  1  3  2  0
  1  4  1  0
  2  5  2  0
  2  6  1  0
  3  7  1  0
  4  8  2  0
  5  9  1  0
  6 10  2  0
  7 12  2  0
  8 12  1  0
  9 13  2  0
 10 13  1  0
 11 14  2  0
 11 25  1  0
 12 27  1  0
 13 28  1  0
 14 15  1  0
 14 31  1  0
 15 26  2  0
 15 29  1  0
 16 25  2  0
 16 26  1  0
 16 30  1  0
 17 21  1  0
 17 27  1  0
 18 22  1  0
 18 27  1  0
 19 23  1  0
 19 28  1  0
 20 24  1  0
 20 28  1  0
 21 29  1  0
 22 29  1  0
 23 30  1  0
 24 30  1  0
M  END
>  <washed_aromatic_smiles>  (707) 
c1ccc(cc1)N2CCN(CC2)c3c(cnc(n3)N4CCN(CC4)c5ccccc5)F

>  <name>  (707) 
neg277199

$$$$
neg328990
     RDKit          3D

 28 31  0  0  0  0  0  0  0  0999 V2000
    4.8460    0.1390   57.4300 C   0  0  0  0  0  0  0  0  0  0  0  0
    4.6030   -0.8450   56.4770 C   0  0  0  0  0  0  0  0  0  0  0  0
    4.2520    1.3890   57.2950 C   0  0  0  0  0  0  0  0  0  0  0  0
    0.4690    1.0880   47.9370 C   0  0  0  0  0  0  0  0  0  0  0  0
    0.8460    2.2470   47.2860 C   0  0  0  0  0  0  0  0  0  0  0  0
    3.1280    8.3800   52.0660 C   0  0  0  0  0  0  0  0  0  0  0  0
    2.8740    7.2060   51.3430 C   0  0  0  0  0  0  0  0  0  0  0  0
    3.7850   -0.5770   55.3800 C   0  0  0  0  0  0  0  0  0  0  0  0
    3.4440    1.6690   56.1980 C   0  0  0  0  0  0  0  0  0  0  0  0
    0.6960    0.9520   49.2920 C   0  0  0  0  0  0  0  0  0  0  0  0
    1.4410    3.3030   47.9820 C   0  0  0  0  0  0  0  0  0  0  0  0
    2.3560    8.7260   53.1630 C   0  0  0  0  0  0  0  0  0  0  0  0
    1.0250    6.7430   52.8000 C   0  0  0  0  0  0  0  0  0  0  0  0
    1.8390    6.3540   51.7160 C   0  0  0  0  0  0  0  0  0  0  0  0
    3.2650    0.7040   55.2030 C   0  0  0  0  0  0  0  0  0  0  0  0
    1.3190    1.9780   50.0170 C   0  0  0  0  0  0  0  0  0  0  0  0
    1.6710    3.2050   49.3540 C   0  0  0  0  0  0  0  0  0  0  0  0
    1.3010    7.9030   53.5010 C   0  0  0  0  0  0  0  0  0  0  0  0
    1.5360    5.0920   51.0400 C   0  0  0  0  0  0  0  0  0  0  0  0
    3.5330    1.1320   52.8130 C   0  0  0  0  0  0  0  0  0  0  0  0
    1.3960    0.4440   53.6010 C   0  0  0  0  0  0  0  0  0  0  0  0
    2.9520    2.0550   51.7610 C   0  0  0  0  0  0  0  0  0  0  0  0
    1.0480    0.5190   52.0890 C   0  0  0  0  0  0  0  0  0  0  0  0
    2.6620    1.0730   53.9860 N   0  0  0  0  0  0  0  0  0  0  0  0
    1.5890    1.7260   51.3860 N   0  0  0  0  0  0  0  0  0  0  0  0
    2.2050    4.4340   50.0040 N   0  0  0  0  0  0  0  0  0  0  0  0
    0.5680    4.5210   51.4210 O   0  0  0  0  0  0  0  0  0  0  0  0
    0.5160    8.2460   54.5470 F   0  0  0  0  0  0  0  0  0  0  0  0
  1  2  2  0
  1  3  1  0
  2  8  1  0
  3  9  2  0
  4  5  2  0
  4 10  1  0
  5 11  1  0
  6  7  2  0
  6 12  1  0
  7 14  1  0
  8 15  2  0
  9 15  1  0
 10 16  2  0
 11 17  2  0
 12 18  2  0
 13 14  2  0
 13 18  1  0
 14 19  1  0
 15 24  1  0
 16 17  1  0
 16 25  1  0
 17 26  1  0
 18 28  1  0
 19 26  1  0
 19 27  2  0
 20 22  1  0
 20 24  1  0
 21 23  1  0
 21 24  1  0
 22 25  1  0
 23 25  1  0
M  END
>  <washed_aromatic_smiles>  (708) 
c1ccc(cc1)N2CCN(CC2)c3ccccc3NC(=O)c4cccc(c4)F

>  <name>  (708) 
neg328990

$$$$
neg329288
     RDKit          3D

 30 32  0  0  0  0  0  0  0  0999 V2000
    5.5130   12.4980   57.1800 C   0  0  0  0  0  0  0  0  0  0  0  0
    5.6810   12.5540   55.8000 C   0  0  0  0  0  0  0  0  0  0  0  0
    4.7670   11.4680   57.7430 C   0  0  0  0  0  0  0  0  0  0  0  0
    5.1110   11.5910   54.9780 C   0  0  0  0  0  0  0  0  0  0  0  0
    4.1740   10.5090   56.9330 C   0  0  0  0  0  0  0  0  0  0  0  0
    4.3460   10.5580   55.5390 C   0  0  0  0  0  0  0  0  0  0  0  0
    2.5380    6.1610   52.2420 C   0  0  0  0  0  0  0  0  0  0  0  0
    1.3580    5.1540   50.6150 C   0  0  0  0  0  0  0  0  0  0  0  0
    2.6370    3.8980   51.9350 C   0  0  0  0  0  0  0  0  0  0  0  0
    3.7730    9.6620   53.2160 C   0  0  0  0  0  0  0  0  0  0  0  0
    3.3250    8.2940   55.2380 C   0  0  0  0  0  0  0  0  0  0  0  0
    2.8440    8.6540   52.4740 C   0  0  0  0  0  0  0  0  0  0  0  0
    3.5910    7.1730   54.2390 C   0  0  0  0  0  0  0  0  0  0  0  0
    1.6110    4.4800   48.3630 C   0  0  0  0  0  0  0  0  0  0  0  0
    2.3860    1.4570   51.6170 C   0  0  0  0  0  0  0  0  0  0  0  0
    3.1300    4.8470   48.3380 C   0  0  0  0  0  0  0  0  0  0  0  0
    3.0940    0.1260   51.8230 C   0  0  0  0  0  0  0  0  0  0  0  0
    1.6670    6.2810   51.2360 N   0  0  0  0  0  0  0  0  0  0  0  0
    3.1150    4.9790   52.5460 N   0  0  0  0  0  0  0  0  0  0  0  0
    1.7190    3.9560   51.0010 N   0  0  0  0  0  0  0  0  0  0  0  0
    3.7180    9.5950   54.7010 N   0  0  0  0  0  0  0  0  0  0  0  0
    2.8260    7.2850   53.0200 N   0  0  0  0  0  0  0  0  0  0  0  0
    0.8080    5.1640   49.4020 O   0  0  0  0  0  0  0  0  0  0  0  0
    3.0570    2.6260   52.2620 O   0  0  0  0  0  0  0  0  0  0  0  0
    3.3410    6.1130   47.9930 F   0  0  0  0  0  0  0  0  0  0  0  0
    3.7910    4.0520   47.4850 F   0  0  0  0  0  0  0  0  0  0  0  0
    3.7920    4.7110   49.4590 F   0  0  0  0  0  0  0  0  0  0  0  0
    4.3220    0.1430   51.2960 F   0  0  0  0  0  0  0  0  0  0  0  0
    2.4350   -0.8750   51.2240 F   0  0  0  0  0  0  0  0  0  0  0  0
    3.1900   -0.1990   53.1180 F   0  0  0  0  0  0  0  0  0  0  0  0
  1  2  2  0
  1  3  1  0
  2  4  1  0
  3  5  2  0
  4  6  2  0
  5  6  1  0
  6 21  1  0
  7 18  1  0
  7 19  2  0
  7 22  1  0
  8 18  2  0
  8 20  1  0
  8 23  1  0
  9 19  1  0
  9 20  2  0
  9 24  1  0
 10 12  1  0
 10 21  1  0
 11 13  1  0
 11 21  1  0
 12 22  1  0
 13 22  1  0
 14 16  1  0
 14 23  1  0
 15 17  1  0
 15 24  1  0
 16 25  1  0
 16 26  1  0
 16 27  1  0
 17 28  1  0
 17 29  1  0
 17 30  1  0
M  END
>  <washed_aromatic_smiles>  (709) 
c1ccc(cc1)N2CCN(CC2)c3nc(nc(n3)OCC(F)(F)F)OCC(F)(F)F

>  <name>  (709) 
neg329288

$$$$
neg124230
     RDKit          3D

 25 28  0  0  0  0  0  0  0  0999 V2000
    1.0170    0.1550   46.1160 C   0  0  0  0  0  0  0  0  0  0  0  0
    1.6210    8.1810   52.6790 C   0  0  0  0  0  0  0  0  0  0  0  0
    1.1470   -0.4440   47.3600 C   0  0  0  0  0  0  0  0  0  0  0  0
    0.6360    1.4780   46.0210 C   0  0  0  0  0  0  0  0  0  0  0  0
    0.4810    7.4000   52.7600 C   0  0  0  0  0  0  0  0  0  0  0  0
    2.7120    7.7290   51.9540 C   0  0  0  0  0  0  0  0  0  0  0  0
    0.9700    0.3030   48.5030 C   0  0  0  0  0  0  0  0  0  0  0  0
    0.5910    2.2650   47.1610 C   0  0  0  0  0  0  0  0  0  0  0  0
    0.4390    6.1450   52.1620 C   0  0  0  0  0  0  0  0  0  0  0  0
    2.6790    6.4910   51.3140 C   0  0  0  0  0  0  0  0  0  0  0  0
    0.9100    1.6970   48.3940 C   0  0  0  0  0  0  0  0  0  0  0  0
    1.5460    5.6810   51.4410 C   0  0  0  0  0  0  0  0  0  0  0  0
    1.5170    3.8880   49.6250 C   0  0  0  0  0  0  0  0  0  0  0  0
    3.1280   -0.7320   54.7830 C   0  0  0  0  0  0  0  0  0  0  0  0
    3.2210    0.7460   55.1080 C   0  0  0  0  0  0  0  0  0  0  0  0
    2.6000   -1.0880   53.3870 C   0  0  0  0  0  0  0  0  0  0  0  0
    2.5850    1.5530   53.9970 C   0  0  0  0  0  0  0  0  0  0  0  0
    2.9470   -0.1880   52.2170 C   0  0  0  0  0  0  0  0  0  0  0  0
    2.4160    1.8250   50.2400 C   0  0  0  0  0  0  0  0  0  0  0  0
    2.5910    3.5810   51.6790 C   0  0  0  0  0  0  0  0  0  0  0  0
    3.0880    1.3070   52.5640 C   0  0  0  0  0  0  0  0  0  0  0  0
    1.3390    2.4670   49.5150 N   0  0  0  0  0  0  0  0  0  0  0  0
    1.5740    4.3320   50.9810 N   0  0  0  0  0  0  0  0  0  0  0  0
    2.3110    2.1510   51.6320 N   0  0  0  0  0  0  0  0  0  0  0  0
    1.9480    4.8590   48.3380 S   0  0  0  0  0  0  0  0  0  0  0  0
  1  3  2  0
  1  4  1  0
  2  5  2  0
  2  6  1  0
  3  7  1  0
  4  8  2  0
  5  9  1  0
  6 10  2  0
  7 11  2  0
  8 11  1  0
  9 12  2  0
 10 12  1  0
 11 22  1  0
 12 23  1  0
 13 22  1  0
 13 23  1  0
 13 25  2  0
 14 15  1  0
 14 16  1  0
 15 17  1  0
 16 18  1  0
 17 21  1  0
 18 21  1  0
 19 22  1  0
 19 24  1  0
 20 23  1  0
 20 24  1  0
 21 24  1  0
M  END
>  <washed_aromatic_smiles>  (710) 
c1ccc(cc1)N2CN(CN(C2=S)c3ccccc3)C4CCCCC4

>  <name>  (710) 
neg124230

$$$$
neg302471
     RDKit          3D

 26 29  0  0  0  0  0  0  0  0999 V2000
    2.5320    4.4530   49.8800 C   0  0  0  0  0  0  0  0  0  0  0  0
    2.5540    3.8450   51.1220 C   0  0  0  0  0  0  0  0  0  0  0  0
    2.8950    5.7860   49.7800 C   0  0  0  0  0  0  0  0  0  0  0  0
    2.9820    4.5560   52.2360 C   0  0  0  0  0  0  0  0  0  0  0  0
    3.1900    6.5390   50.9120 C   0  0  0  0  0  0  0  0  0  0  0  0
    3.3180    5.9180   52.1670 C   0  0  0  0  0  0  0  0  0  0  0  0
    4.1550   10.6690   53.5090 C   0  0  0  0  0  0  0  0  0  0  0  0
    6.2030    9.4840   53.4270 C   0  0  0  0  0  0  0  0  0  0  0  0
    1.6740    8.7850   52.9150 C   0  0  0  0  0  0  0  0  0  0  0  0
    1.6910    8.8310   55.3300 C   0  0  0  0  0  0  0  0  0  0  0  0
    4.4270    7.1250   56.7620 C   0  0  0  0  0  0  0  0  0  0  0  0
    4.7890    9.4440   56.4860 C   0  0  0  0  0  0  0  0  0  0  0  0
    4.8800   11.9880   53.2090 C   0  0  0  0  0  0  0  0  0  0  0  0
    6.7080   10.7050   52.6430 C   0  0  0  0  0  0  0  0  0  0  0  0
    0.2620    8.2600   52.9180 C   0  0  0  0  0  0  0  0  0  0  0  0
    0.1900    8.4570   55.2340 C   0  0  0  0  0  0  0  0  0  0  0  0
    5.3760    7.1200   57.9650 C   0  0  0  0  0  0  0  0  0  0  0  0
    5.6490    9.3920   57.7670 C   0  0  0  0  0  0  0  0  0  0  0  0
    3.9080    6.5370   53.3760 N   0  0  0  0  0  0  0  0  0  0  0  0
    4.7550    9.3440   53.3100 N   0  0  0  0  0  0  0  0  0  0  0  0
    2.3910    8.4520   54.1490 N   0  0  0  0  0  0  0  0  0  0  0  0
    4.6740    8.1410   55.7350 N   0  0  0  0  0  0  0  0  0  0  0  0
    6.2780   11.8950   53.2610 O   0  0  0  0  0  0  0  0  0  0  0  0
   -0.4000    8.8430   54.0110 O   0  0  0  0  0  0  0  0  0  0  0  0
    5.2740    8.3520   58.6460 O   0  0  0  0  0  0  0  0  0  0  0  0
    3.9840    8.0910   54.1300 P   0  0  0  0  0  0  0  0  0  0  0  0
  1  2  2  0
  1  3  1  0
  2  4  1  0
  3  5  2  0
  4  6  2  0
  5  6  1  0
  6 19  1  0
  7 13  1  0
  7 20  1  0
  8 14  1  0
  8 20  1  0
  9 15  1  0
  9 21  1  0
 10 16  1  0
 10 21  1  0
 11 17  1  0
 11 22  1  0
 12 18  1  0
 12 22  1  0
 13 23  1  0
 14 23  1  0
 15 24  1  0
 16 24  1  0
 17 25  1  0
 18 25  1  0
 19 26  1  0
 20 26  1  0
 21 26  1  0
 22 26  1  0
M  CHG  1  26   1
M  END
>  <washed_aromatic_smiles>  (711) 
c1ccc(cc1)N=P(N2CCOCC2)(N3CCOCC3)N4CCOCC4

>  <name>  (711) 
neg302471

$$$$
neg183704
     RDKit          3D

 27 28  0  0  0  0  0  0  0  0999 V2000
    0.2190    1.9560   46.8130 C   0  0  0  0  0  0  0  0  0  0  0  0
   -0.3840    0.8360   47.3570 C   0  0  0  0  0  0  0  0  0  0  0  0
    1.0780    2.7270   47.5900 C   0  0  0  0  0  0  0  0  0  0  0  0
    1.5420    8.8080   55.5540 C   0  0  0  0  0  0  0  0  0  0  0  0
    0.5260    8.2530   54.7920 C   0  0  0  0  0  0  0  0  0  0  0  0
   -0.1020    0.4220   48.6410 C   0  0  0  0  0  0  0  0  0  0  0  0
    1.3320    2.3590   48.9000 C   0  0  0  0  0  0  0  0  0  0  0  0
    2.8240    8.7850   55.0760 C   0  0  0  0  0  0  0  0  0  0  0  0
    0.8020    7.5510   53.6210 C   0  0  0  0  0  0  0  0  0  0  0  0
    0.7420    1.2030   49.4120 C   0  0  0  0  0  0  0  0  0  0  0  0
    3.0740    8.1650   53.8570 C   0  0  0  0  0  0  0  0  0  0  0  0
    2.1040    7.4060   53.1420 C   0  0  0  0  0  0  0  0  0  0  0  0
    1.8040   -0.3040   50.9090 C   0  0  0  0  0  0  0  0  0  0  0  0
    3.0580    2.3580   52.3940 C   0  0  0  0  0  0  0  0  0  0  0  0
    2.9040   -0.1380   51.9080 C   0  0  0  0  0  0  0  0  0  0  0  0
    3.6490    1.1850   51.6450 C   0  0  0  0  0  0  0  0  0  0  0  0
    1.0360    0.8070   50.7130 N   0  0  0  0  0  0  0  0  0  0  0  0
    2.8430    3.5420   51.7440 N   0  0  0  0  0  0  0  0  0  0  0  0
    2.7810    4.8660   52.3430 N   0  0  0  0  0  0  0  0  0  0  0  0
    4.3630    8.5490   53.4380 N   0  0  0  0  0  0  0  0  0  0  0  0
    5.3460    8.1020   54.0090 O   0  0  0  0  0  0  0  0  0  0  0  0
    1.7420   -1.2550   50.1580 O   0  0  0  0  0  0  0  0  0  0  0  0
    2.8020    2.2150   53.5980 O   0  0  0  0  0  0  0  0  0  0  0  0
    4.4700    9.5100   52.6950 O   0  0  0  0  0  0  0  0  0  0  0  0
    0.9220    6.0110   51.1960 O   0  0  0  0  0  0  0  0  0  0  0  0
    3.1970    6.7550   50.7780 O   0  0  0  0  0  0  0  0  0  0  0  0
    2.2460    6.2380   51.7090 S   0  0  1  0  0  0  0  0  0  0  0  0
  1  2  2  0
  1  3  1  0
  2  6  1  0
  3  7  2  0
  4  5  2  0
  4  8  1  0
  5  9  1  0
  6 10  2  0
  7 10  1  0
  8 11  2  0
  9 12  2  0
 10 17  1  0
 11 12  1  0
 11 20  1  0
 12 27  1  0
 13 15  1  0
 13 17  1  0
 13 22  2  0
 14 16  1  0
 14 18  1  0
 14 23  2  0
 15 16  1  0
 18 19  1  0
 19 27  2  0
 20 21  1  0
 20 24  2  0
 25 27  2  0
 27 26  1  6
M  CHG  3  20   1  21  -1  26  -1
M  END
>  <washed_aromatic_smiles>  (712) 
c1ccc(cc1)NC(=O)CCC(=O)NNS(=O)(=O)c2ccccc2[N+](=O)[O-]

>  <name>  (712) 
neg183704

$$$$
neg50325
     RDKit          3D

 25 27  0  0  0  0  0  0  0  0999 V2000
    5.7930   12.7190   58.7810 C   0  0  0  0  0  0  0  0  0  0  0  0
    5.6900   13.4050   57.5750 C   0  0  0  0  0  0  0  0  0  0  0  0
    5.5060   11.3600   58.8300 C   0  0  0  0  0  0  0  0  0  0  0  0
    5.3250   12.7360   56.4100 C   0  0  0  0  0  0  0  0  0  0  0  0
    5.1280   10.6800   57.6840 C   0  0  0  0  0  0  0  0  0  0  0  0
    5.0600   11.3610   56.4700 C   0  0  0  0  0  0  0  0  0  0  0  0
    2.2250    3.8870   50.2230 C   0  0  0  0  0  0  0  0  0  0  0  0
    2.7480    6.0890   50.8390 C   0  0  0  0  0  0  0  0  0  0  0  0
    4.7460   10.8250   54.0130 C   0  0  0  0  0  0  0  0  0  0  0  0
    2.9460    7.6200   52.7810 C   0  0  0  0  0  0  0  0  0  0  0  0
    0.6770   -0.1200   49.7820 C   0  0  0  0  0  0  0  0  0  0  0  0
    1.8870    0.0350   50.7270 C   0  0  0  0  0  0  0  0  0  0  0  0
    0.7470    0.6980   48.4850 C   0  0  0  0  0  0  0  0  0  0  0  0
    2.6160    1.3850   50.6050 C   0  0  0  0  0  0  0  0  0  0  0  0
    1.1560    2.1660   48.7040 C   0  0  0  0  0  0  0  0  0  0  0  0
    1.6580    2.4800   50.1280 C   0  0  0  0  0  0  0  0  0  0  0  0
    4.4890    9.6090   53.1580 C   0  0  0  0  0  0  0  0  0  0  0  0
    3.0430    9.0720   53.1980 C   0  0  0  0  0  0  0  0  0  0  0  0
    3.1530    4.4040   49.4730 N   0  0  0  0  0  0  0  0  0  0  0  0
    3.4670    5.7020   49.8250 N   0  0  0  0  0  0  0  0  0  0  0  0
    4.7400   10.5490   55.3570 N   0  0  0  0  0  0  0  0  0  0  0  0
    2.8220    7.3580   51.4410 N   0  0  0  0  0  0  0  0  0  0  0  0
    4.9480   11.9370   53.5620 O   0  0  0  0  0  0  0  0  0  0  0  0
    3.0540    6.7160   53.5860 O   0  0  0  0  0  0  0  0  0  0  0  0
    1.6220    4.9580   51.4080 S   0  0  0  0  0  0  0  0  0  0  0  0
  1  2  2  0
  1  3  1  0
  2  4  1  0
  3  5  2  0
  4  6  2  0
  5  6  1  0
  6 21  1  0
  7 16  1  0
  7 19  2  0
  7 25  1  0
  8 20  2  0
  8 22  1  0
  8 25  1  0
  9 17  1  0
  9 21  1  0
  9 23  2  0
 10 18  1  0
 10 22  1  0
 10 24  2  0
 11 12  1  0
 11 13  1  0
 12 14  1  0
 13 15  1  0
 14 16  1  0
 15 16  1  0
 17 18  1  0
 19 20  1  0
M  END
>  <washed_aromatic_smiles>  (713) 
c1ccc(cc1)NC(=O)CCC(=O)Nc2nnc(s2)C3CCCCC3

>  <name>  (713) 
neg50325

$$$$
neg325100
     RDKit          3D

 35 37  0  0  0  0  0  0  0  0999 V2000
    5.2360   12.9940   53.7470 C   0  0  0  0  0  0  0  0  0  0  0  0
   -0.0630   -0.1530   48.4600 C   0  0  0  0  0  0  0  0  0  0  0  0
    4.9880   13.3050   55.0830 C   0  0  0  0  0  0  0  0  0  0  0  0
    5.5010   11.6820   53.3740 C   0  0  0  0  0  0  0  0  0  0  0  0
   -0.0390    0.9430   47.5970 C   0  0  0  0  0  0  0  0  0  0  0  0
    0.8190   -0.2220   49.5310 C   0  0  0  0  0  0  0  0  0  0  0  0
    5.0110   12.3130   56.0570 C   0  0  0  0  0  0  0  0  0  0  0  0
    5.5300   10.6820   54.3340 C   0  0  0  0  0  0  0  0  0  0  0  0
    0.8160    2.0080   47.8440 C   0  0  0  0  0  0  0  0  0  0  0  0
    1.6930    0.8210   49.7760 C   0  0  0  0  0  0  0  0  0  0  0  0
    5.2890   10.9980   55.6750 C   0  0  0  0  0  0  0  0  0  0  0  0
    1.6710    1.9370   48.9420 C   0  0  0  0  0  0  0  0  0  0  0  0
    4.9250    9.7450   57.8610 C   0  0  0  0  0  0  0  0  0  0  0  0
    2.1450    4.2250   49.6480 C   0  0  0  0  0  0  0  0  0  0  0  0
    4.6020    7.1070   56.5310 C   0  0  0  0  0  0  0  0  0  0  0  0
    2.0030    5.8010   52.4960 C   0  0  0  0  0  0  0  0  0  0  0  0
    4.9900    5.8840   58.7120 C   0  0  0  0  0  0  0  0  0  0  0  0
    2.8730    2.9220   52.3600 C   0  0  0  0  0  0  0  0  0  0  0  0
    3.5960    7.7070   55.4920 C   0  0  0  0  0  0  0  0  0  0  0  0
    2.6310    7.0140   53.2910 C   0  0  0  0  0  0  0  0  0  0  0  0
    5.4080    4.4860   58.0460 C   0  0  0  0  0  0  0  0  0  0  0  0
    2.6470    1.7500   53.5770 C   0  0  0  0  0  0  0  0  0  0  0  0
    4.4040    2.4160   56.9840 C   0  0  0  0  0  0  0  0  0  0  0  0
    3.2020    1.9590   56.0640 C   0  0  0  0  0  0  0  0  0  0  0  0
    5.2760    8.4020   58.5010 C   0  0  0  0  0  0  0  0  0  0  0  0
    3.1220    4.9330   50.5560 C   0  0  0  0  0  0  0  0  0  0  0  0
    4.5480    7.2070   57.9800 N   0  0  0  0  0  0  0  0  0  0  0  0
    2.9480    4.6490   52.0500 N   0  0  0  0  0  0  0  0  0  0  0  0
    5.4150    9.9250   56.5910 N   0  0  0  0  0  0  0  0  0  0  0  0
    2.5480    2.9790   49.2560 N   0  0  0  0  0  0  0  0  0  0  0  0
    4.2700   10.6030   58.4160 O   0  0  0  0  0  0  0  0  0  0  0  0
    1.0570    4.6660   49.3390 O   0  0  0  0  0  0  0  0  0  0  0  0
    3.2310    6.6790   54.5460 O   0  0  0  0  0  0  0  0  0  0  0  0
    4.5040    3.8750   57.0930 O   0  0  0  0  0  0  0  0  0  0  0  0
    3.4750    1.4240   54.7350 O   0  0  0  0  0  0  0  0  0  0  0  0
  1  3  2  0
  1  4  1  0
  2  5  2  0
  2  6  1  0
  3  7  1  0
  4  8  2  0
  5  9  1  0
  6 10  2  0
  7 11  2  0
  8 11  1  0
  9 12  2  0
 10 12  1  0
 11 29  1  0
 12 30  1  0
 13 25  1  0
 13 29  1  0
 13 31  2  0
 14 26  1  0
 14 30  1  0
 14 32  2  0
 15 19  1  0
 15 27  1  0
 16 20  1  0
 16 28  1  0
 17 21  1  0
 17 27  1  0
 18 22  1  0
 18 28  1  0
 19 33  1  0
 20 33  1  0
 21 34  1  0
 22 35  1  0
 23 24  1  0
 23 34  1  0
 24 35  1  0
 25 27  1  0
 26 28  1  0
M  END
>  <washed_aromatic_smiles>  (714) 
c1ccc(cc1)NC(=O)CN2CCOCCN(CCOCCOCC2)CC(=O)Nc3ccccc3

>  <name>  (714) 
neg325100

$$$$
neg16714
     RDKit          3D

 28 30  0  0  0  0  0  0  0  0999 V2000
    5.1910   11.8310   57.3040 C   0  0  0  0  0  0  0  0  0  0  0  0
    4.4250   10.6780   57.4620 C   0  0  0  0  0  0  0  0  0  0  0  0
    5.6110   12.2200   56.0340 C   0  0  0  0  0  0  0  0  0  0  0  0
    3.0910    4.3650   49.1550 C   0  0  0  0  0  0  0  0  0  0  0  0
    1.6780    4.5270   51.0720 C   0  0  0  0  0  0  0  0  0  0  0  0
    4.0690    9.9140   56.3560 C   0  0  0  0  0  0  0  0  0  0  0  0
    5.2670   11.4630   54.9210 C   0  0  0  0  0  0  0  0  0  0  0  0
    2.6320    3.0640   48.9310 C   0  0  0  0  0  0  0  0  0  0  0  0
    1.2530    3.2520   50.8110 C   0  0  0  0  0  0  0  0  0  0  0  0
    2.6270    5.1010   50.2530 C   0  0  0  0  0  0  0  0  0  0  0  0
    4.4900   10.3120   55.0800 C   0  0  0  0  0  0  0  0  0  0  0  0
    1.7030    2.4680   49.7840 C   0  0  0  0  0  0  0  0  0  0  0  0
    3.0430    6.4460   50.5610 C   0  0  0  0  0  0  0  0  0  0  0  0
    3.4770    8.4380   53.6970 C   0  0  0  0  0  0  0  0  0  0  0  0
    2.8570   -0.5860   53.7230 C   0  0  0  0  0  0  0  0  0  0  0  0
    1.5120    0.0730   53.7650 C   0  0  0  0  0  0  0  0  0  0  0  0
    2.7380   -1.4620   52.4900 C   0  0  0  0  0  0  0  0  0  0  0  0
    1.2090    0.7800   52.4530 C   0  0  0  0  0  0  0  0  0  0  0  0
    2.6910   -0.6590   51.1910 C   0  0  0  0  0  0  0  0  0  0  0  0
    2.9140    8.2400   52.3070 C   0  0  0  0  0  0  0  0  0  0  0  0
    1.4610    0.0890   51.1690 N   0  0  0  0  0  0  0  0  0  0  0  0
    4.1080    9.6500   53.8780 N   0  0  0  0  0  0  0  0  0  0  0  0
    3.4950    7.1920   49.7230 O   0  0  0  0  0  0  0  0  0  0  0  0
    3.3330    7.6340   54.6020 O   0  0  0  0  0  0  0  0  0  0  0  0
   -0.4910    1.0020   49.9710 O   0  0  0  0  0  0  0  0  0  0  0  0
    1.2650    0.1060   48.6160 O   0  0  0  0  0  0  0  0  0  0  0  0
    2.8660    6.8650   51.8510 O   0  0  0  0  0  0  0  0  0  0  0  0
    0.8990    0.8240   49.7840 S   0  0  0  0  0  0  0  0  0  0  0  0
  1  2  2  0
  1  3  1  0
  2  6  1  0
  3  7  2  0
  4  8  2  0
  4 10  1  0
  5  9  1  0
  5 10  2  0
  6 11  2  0
  7 11  1  0
  8 12  1  0
  9 12  2  0
 10 13  1  0
 11 22  1  0
 12 28  1  0
 13 23  2  0
 13 27  1  0
 14 20  1  0
 14 22  1  0
 14 24  2  0
 15 16  1  0
 15 17  1  0
 16 18  1  0
 17 19  1  0
 18 21  1  0
 19 21  1  0
 20 27  1  0
 21 28  1  0
 25 28  2  0
 26 28  2  0
M  END
>  <washed_aromatic_smiles>  (715) 
c1ccc(cc1)NC(=O)COC(=O)c2ccc(cc2)S(=O)(=O)N3CCCCC3

>  <name>  (715) 
neg16714

$$$$
neg142497
     RDKit          3D

 33 36  0  0  0  0  0  0  0  0999 V2000
    4.7380    0.2580   57.3020 C   0  0  0  0  0  0  0  0  0  0  0  0
    6.0550   11.7280   53.1190 C   0  0  0  0  0  0  0  0  0  0  0  0
    3.4830    4.4210   48.0480 C   0  0  0  0  0  0  0  0  0  0  0  0
    3.6030    5.6240   48.7270 C   0  0  0  0  0  0  0  0  0  0  0  0
    4.0500    1.4290   57.0030 C   0  0  0  0  0  0  0  0  0  0  0  0
    4.6080   -0.8450   56.4670 C   0  0  0  0  0  0  0  0  0  0  0  0
    6.5540   10.4510   53.3190 C   0  0  0  0  0  0  0  0  0  0  0  0
    4.6970   11.9070   52.9850 C   0  0  0  0  0  0  0  0  0  0  0  0
    2.6320    3.4490   48.5270 C   0  0  0  0  0  0  0  0  0  0  0  0
    2.9610    5.8010   49.9230 C   0  0  0  0  0  0  0  0  0  0  0  0
    3.2360    1.5080   55.8740 C   0  0  0  0  0  0  0  0  0  0  0  0
    3.8190   -0.7570   55.3240 C   0  0  0  0  0  0  0  0  0  0  0  0
    5.7240    9.3630   53.5190 C   0  0  0  0  0  0  0  0  0  0  0  0
    3.8740   10.7990   53.0360 C   0  0  0  0  0  0  0  0  0  0  0  0
    1.9640    3.5860   49.7370 C   0  0  0  0  0  0  0  0  0  0  0  0
    2.1270    4.8170   50.4520 C   0  0  0  0  0  0  0  0  0  0  0  0
    3.1800    0.4220   54.9930 C   0  0  0  0  0  0  0  0  0  0  0  0
    4.3600    9.5420   53.3490 C   0  0  0  0  0  0  0  0  0  0  0  0
    1.2620    2.3530   50.1310 C   0  0  0  0  0  0  0  0  0  0  0  0
    1.4690    5.2590   51.6610 C   0  0  0  0  0  0  0  0  0  0  0  0
    2.1610    8.3060   53.2290 C   0  0  0  0  0  0  0  0  0  0  0  0
    3.3270    1.5780   52.9500 C   0  0  0  0  0  0  0  0  0  0  0  0
    1.2690    0.3560   53.3900 C   0  0  0  0  0  0  0  0  0  0  0  0
    3.0380    1.5680   51.4820 C   0  0  0  0  0  0  0  0  0  0  0  0
    0.8750    0.6000   51.9020 C   0  0  0  0  0  0  0  0  0  0  0  0
    1.6310    6.9390   53.4620 C   0  0  0  0  0  0  0  0  0  0  0  0
    2.7040    0.4880   53.6720 N   0  0  0  0  0  0  0  0  0  0  0  0
    1.6270    1.7100   51.2770 N   0  0  0  0  0  0  0  0  0  0  0  0
    3.5190    8.4140   53.4530 N   0  0  0  0  0  0  0  0  0  0  0  0
    0.4940    1.7520   49.3780 O   0  0  0  0  0  0  0  0  0  0  0  0
    0.2880    5.1780   51.8700 O   0  0  0  0  0  0  0  0  0  0  0  0
    1.4300    9.2080   52.8820 O   0  0  0  0  0  0  0  0  0  0  0  0
    2.2110    5.9690   52.5390 O   0  0  0  0  0  0  0  0  0  0  0  0
  1  5  2  0
  1  6  1  0
  2  7  2  0
  2  8  1  0
  3  4  2  0
  3  9  1  0
  4 10  1  0
  5 11  1  0
  6 12  2  0
  7 13  1  0
  8 14  2  0
  9 15  2  0
 10 16  2  0
 11 17  2  0
 12 17  1  0
 13 18  2  0
 14 18  1  0
 15 16  1  0
 15 19  1  0
 16 20  1  0
 17 27  1  0
 18 29  1  0
 19 28  1  0
 19 30  2  0
 20 31  2  0
 20 33  1  0
 21 26  1  0
 21 29  1  0
 21 32  2  0
 22 24  1  0
 22 27  1  0
 23 25  1  0
 23 27  1  0
 24 28  1  0
 25 28  1  0
 26 33  1  0
M  END
>  <washed_aromatic_smiles>  (716) 
c1ccc(cc1)NC(=O)COC(=O)c2ccccc2C(=O)N3CCN(CC3)c4ccccc4

>  <name>  (716) 
neg142497

$$$$
neg224091
     RDKit          3D

 29 31  0  0  0  0  0  0  0  0999 V2000
    5.3550   12.7150   55.7370 C   0  0  0  0  0  0  0  0  0  0  0  0
    1.9330   -0.3020   53.0530 C   0  0  0  0  0  0  0  0  0  0  0  0
    4.9980   11.6460   56.5560 C   0  0  0  0  0  0  0  0  0  0  0  0
    5.3730   12.5630   54.3510 C   0  0  0  0  0  0  0  0  0  0  0  0
    0.8760    0.5350   52.7440 C   0  0  0  0  0  0  0  0  0  0  0  0
    2.5110   -1.0560   52.0500 C   0  0  0  0  0  0  0  0  0  0  0  0
    1.7220    4.2290   50.5780 C   0  0  0  0  0  0  0  0  0  0  0  0
    3.0890    5.4910   49.0540 C   0  0  0  0  0  0  0  0  0  0  0  0
    4.6380   10.4280   55.9940 C   0  0  0  0  0  0  0  0  0  0  0  0
    5.0200   11.3470   53.7760 C   0  0  0  0  0  0  0  0  0  0  0  0
    1.8410    5.2380   51.5260 C   0  0  0  0  0  0  0  0  0  0  0  0
    3.2130    6.4920   50.0040 C   0  0  0  0  0  0  0  0  0  0  0  0
    0.3880    0.6220   51.4440 C   0  0  0  0  0  0  0  0  0  0  0  0
    2.0470   -0.9570   50.7450 C   0  0  0  0  0  0  0  0  0  0  0  0
    2.3210    4.3640   49.3240 C   0  0  0  0  0  0  0  0  0  0  0  0
    4.6260   10.2930   54.6010 C   0  0  0  0  0  0  0  0  0  0  0  0
    2.5970    6.3660   51.2370 C   0  0  0  0  0  0  0  0  0  0  0  0
    0.9800   -0.1210   50.4250 C   0  0  0  0  0  0  0  0  0  0  0  0
    2.0880    3.3830   48.2030 C   0  0  0  0  0  0  0  0  0  0  0  0
    3.0330    8.4230   54.3530 C   0  0  0  0  0  0  0  0  0  0  0  0
    2.6850    7.1890   53.5600 C   0  0  0  0  0  0  0  0  0  0  0  0
    1.7900    2.0330   48.6480 N   0  0  0  0  0  0  0  0  0  0  0  0
    4.1770    9.0970   53.9900 N   0  0  0  0  0  0  0  0  0  0  0  0
    0.7200    1.5450   48.2570 N   0  0  0  0  0  0  0  0  0  0  0  0
    2.3310    8.8190   55.2660 O   0  0  0  0  0  0  0  0  0  0  0  0
   -1.0190   -0.2310   48.7250 O   0  0  0  0  0  0  0  0  0  0  0  0
    1.1440   -0.9260   47.9380 O   0  0  0  0  0  0  0  0  0  0  0  0
    2.7350    7.3990   52.1350 O   0  0  0  0  0  0  0  0  0  0  0  0
    0.3850   -0.0220   48.7290 S   0  0  0  0  0  0  0  0  0  0  0  0
  1  3  2  0
  1  4  1  0
  2  5  2  0
  2  6  1  0
  3  9  1  0
  4 10  2  0
  5 13  1  0
  6 14  2  0
  7 11  2  0
  7 15  1  0
  8 12  1  0
  8 15  2  0
  9 16  2  0
 10 16  1  0
 11 17  1  0
 12 17  2  0
 13 18  2  0
 14 18  1  0
 15 19  1  0
 16 23  1  0
 17 28  1  0
 18 29  1  0
 19 22  1  0
 20 21  1  0
 20 23  1  0
 20 25  2  0
 21 28  1  0
 22 24  2  0
 24 29  1  0
 26 29  2  0
 27 29  2  0
M  END
>  <washed_aromatic_smiles>  (717) 
c1ccc(cc1)NC(=O)COc2ccc(cc2)/C=N/NS(=O)(=O)c3ccccc3

>  <name>  (717) 
neg224091

$$$$
neg232995
     RDKit          3D

 29 33  0  0  0  0  0  0  0  0999 V2000
    0.7940   -0.3800   48.7900 C   0  0  0  0  0  0  0  0  0  0  0  0
    5.1780   13.3970   54.6410 C   0  0  0  0  0  0  0  0  0  0  0  0
    5.4620    9.7370   58.9720 C   0  0  0  0  0  0  0  0  0  0  0  0
    5.1910   12.8620   53.3560 C   0  0  0  0  0  0  0  0  0  0  0  0
    5.2140    8.3860   58.7450 C   0  0  0  0  0  0  0  0  0  0  0  0
    1.4150   -0.4940   50.0300 C   0  0  0  0  0  0  0  0  0  0  0  0
    0.6390    0.8690   48.1930 C   0  0  0  0  0  0  0  0  0  0  0  0
    5.0080   12.5810   55.7380 C   0  0  0  0  0  0  0  0  0  0  0  0
    5.2640   10.6700   57.9780 C   0  0  0  0  0  0  0  0  0  0  0  0
    4.9430   11.5170   53.1720 C   0  0  0  0  0  0  0  0  0  0  0  0
    4.7490    7.9790   57.5130 C   0  0  0  0  0  0  0  0  0  0  0  0
    1.8630    0.6390   50.6920 C   0  0  0  0  0  0  0  0  0  0  0  0
    1.0910    2.0130   48.8420 C   0  0  0  0  0  0  0  0  0  0  0  0
    4.8220   11.1960   55.5750 C   0  0  0  0  0  0  0  0  0  0  0  0
    4.8500   10.2740   56.6960 C   0  0  0  0  0  0  0  0  0  0  0  0
    4.6470   10.6900   54.2680 C   0  0  0  0  0  0  0  0  0  0  0  0
    4.5380    8.9170   56.4810 C   0  0  0  0  0  0  0  0  0  0  0  0
    4.1080    9.3610   54.0920 C   0  0  0  0  0  0  0  0  0  0  0  0
    4.0290    8.5160   55.1990 C   0  0  0  0  0  0  0  0  0  0  0  0
    1.6920    1.8910   50.1010 C   0  0  0  0  0  0  0  0  0  0  0  0
    3.1490    7.7050   52.8290 C   0  0  0  0  0  0  0  0  0  0  0  0
    2.3110    4.2980   50.5070 C   0  0  0  0  0  0  0  0  0  0  0  0
    2.4050    5.2400   51.6850 C   0  0  0  0  0  0  0  0  0  0  0  0
    3.6420    8.9380   52.8950 N   0  0  0  0  0  0  0  0  0  0  0  0
    3.4460    7.3110   55.0790 N   0  0  0  0  0  0  0  0  0  0  0  0
    3.0190    6.9170   53.9260 N   0  0  0  0  0  0  0  0  0  0  0  0
    2.0950    2.9970   50.8830 N   0  0  0  0  0  0  0  0  0  0  0  0
    2.4180    4.6260   49.3400 O   0  0  0  0  0  0  0  0  0  0  0  0
    2.7050    6.9910   51.3100 S   0  0  0  0  0  0  0  0  0  0  0  0
  1  6  2  0
  1  7  1  0
  2  4  2  0
  2  8  1  0
  3  5  2  0
  3  9  1  0
  4 10  1  0
  5 11  1  0
  6 12  1  0
  7 13  2  0
  8 14  2  0
  9 15  2  0
 10 16  2  0
 11 17  2  0
 12 20  2  0
 13 20  1  0
 14 15  1  0
 14 16  1  0
 15 17  1  0
 16 18  1  0
 17 19  1  0
 18 19  2  0
 18 24  1  0
 19 25  1  0
 20 27  1  0
 21 24  2  0
 21 26  1  0
 21 29  1  0
 22 23  1  0
 22 27  1  0
 22 28  2  0
 23 29  1  0
 25 26  2  0
M  END
>  <washed_aromatic_smiles>  (718) 
c1ccc(cc1)NC(=O)CSc2nc3c4ccccc4c5ccccc5c3nn2

>  <name>  (718) 
neg232995

$$$$
neg113196
     RDKit          3D

 25 27  0  0  0  0  0  0  0  0999 V2000
    0.8320    1.4050   48.7970 C   0  0  0  0  0  0  0  0  0  0  0  0
    0.9950    2.5760   48.0580 C   0  0  0  0  0  0  0  0  0  0  0  0
    1.3080    1.3320   50.1060 C   0  0  0  0  0  0  0  0  0  0  0  0
    5.1410   11.3690   55.0810 C   0  0  0  0  0  0  0  0  0  0  0  0
    4.1660   10.4300   57.0980 C   0  0  0  0  0  0  0  0  0  0  0  0
    1.6350    3.6770   48.6190 C   0  0  0  0  0  0  0  0  0  0  0  0
    1.9520    2.4240   50.6760 C   0  0  0  0  0  0  0  0  0  0  0  0
    5.6810   12.4050   55.8340 C   0  0  0  0  0  0  0  0  0  0  0  0
    4.7320   11.4500   57.8470 C   0  0  0  0  0  0  0  0  0  0  0  0
    4.3880   10.3750   55.7160 C   0  0  0  0  0  0  0  0  0  0  0  0
    2.1130    3.5920   49.9280 C   0  0  0  0  0  0  0  0  0  0  0  0
    5.4870   12.4420   57.2180 C   0  0  0  0  0  0  0  0  0  0  0  0
    3.8890    7.9840   55.3820 C   0  0  0  0  0  0  0  0  0  0  0  0
    3.2340    8.4370   52.6770 C   0  0  0  0  0  0  0  0  0  0  0  0
    2.3620    5.4230   51.5620 C   0  0  0  0  0  0  0  0  0  0  0  0
    3.1280    6.9640   54.5570 C   0  0  0  0  0  0  0  0  0  0  0  0
    3.1200    9.5370   53.6900 C   0  0  0  0  0  0  0  0  0  0  0  0
    3.8430    9.2940   54.9520 N   0  0  0  0  0  0  0  0  0  0  0  0
    3.1900    7.1710   53.1400 N   0  0  0  0  0  0  0  0  0  0  0  0
    2.8100    4.6800   50.4860 N   0  0  0  0  0  0  0  0  0  0  0  0
    3.3790    6.0350   52.2340 N   0  0  0  0  0  0  0  0  0  0  0  0
    4.5380    7.6670   56.3650 O   0  0  0  0  0  0  0  0  0  0  0  0
    3.4070    8.6580   51.5070 O   0  0  0  0  0  0  0  0  0  0  0  0
    1.1720    5.5120   51.8810 O   0  0  0  0  0  0  0  0  0  0  0  0
    6.1950   13.7090   58.1650 Cl  0  0  0  0  0  0  0  0  0  0  0  0
  1  2  2  0
  1  3  1  0
  2  6  1  0
  3  7  2  0
  4  8  2  0
  4 10  1  0
  5  9  1  0
  5 10  2  0
  6 11  2  0
  7 11  1  0
  8 12  1  0
  9 12  2  0
 10 18  1  0
 11 20  1  0
 12 25  1  0
 13 16  1  0
 13 18  1  0
 13 22  2  0
 14 17  1  0
 14 19  1  0
 14 23  2  0
 15 20  1  0
 15 21  1  0
 15 24  2  0
 16 19  1  0
 17 18  1  0
 19 21  1  0
M  END
>  <washed_aromatic_smiles>  (719) 
c1ccc(cc1)NC(=O)NN2CC(=O)N(CC2=O)c3ccc(cc3)Cl

>  <name>  (719) 
neg113196

$$$$
neg220142
     RDKit          3D

 25 27  0  0  0  0  0  0  0  0999 V2000
    1.7630    1.8070   49.1160 C   0  0  0  0  0  0  0  0  0  0  0  0
    1.6430    3.0960   48.6020 C   0  0  0  0  0  0  0  0  0  0  0  0
    2.2520    1.6090   50.4070 C   0  0  0  0  0  0  0  0  0  0  0  0
    5.4810    7.9250   59.5730 C   0  0  0  0  0  0  0  0  0  0  0  0
    0.9060    8.4520   54.5640 C   0  0  0  0  0  0  0  0  0  0  0  0
    5.3520    6.5500   59.2210 C   0  0  0  0  0  0  0  0  0  0  0  0
    0.7860    7.5830   53.4970 C   0  0  0  0  0  0  0  0  0  0  0  0
    1.9820    4.1930   49.3850 C   0  0  0  0  0  0  0  0  0  0  0  0
    2.5940    2.6990   51.1990 C   0  0  0  0  0  0  0  0  0  0  0  0
    2.1640    8.8740   54.9820 C   0  0  0  0  0  0  0  0  0  0  0  0
    5.3060    8.8920   58.6330 C   0  0  0  0  0  0  0  0  0  0  0  0
    3.1740    7.3960   53.3850 C   0  0  0  0  0  0  0  0  0  0  0  0
    5.0520    6.2050   57.9410 C   0  0  0  0  0  0  0  0  0  0  0  0
    1.9120    7.0070   52.9150 C   0  0  0  0  0  0  0  0  0  0  0  0
    2.4290    3.9900   50.6940 C   0  0  0  0  0  0  0  0  0  0  0  0
    3.3090    8.4040   54.3440 C   0  0  0  0  0  0  0  0  0  0  0  0
    5.0370    8.5490   57.2570 C   0  0  0  0  0  0  0  0  0  0  0  0
    1.7020    6.0350   51.8410 C   0  0  0  0  0  0  0  0  0  0  0  0
    4.8860    7.1910   56.9780 N   0  0  0  0  0  0  0  0  0  0  0  0
    2.6760    5.0950   51.5510 N   0  0  0  0  0  0  0  0  0  0  0  0
    4.9650    9.4170   56.3130 N   0  0  0  0  0  0  0  0  0  0  0  0
    0.6430    5.9760   51.2260 O   0  0  0  0  0  0  0  0  0  0  0  0
    4.9250   10.4360   54.0340 O   0  0  0  0  0  0  0  0  0  0  0  0
    5.9340    8.2540   54.3150 O   0  0  0  0  0  0  0  0  0  0  0  0
    4.9070    9.1690   54.6920 S   0  0  0  0  0  0  0  0  0  0  0  0
  1  2  2  0
  1  3  1  0
  2  8  1  0
  3  9  2  0
  4  6  1  0
  4 11  2  0
  5  7  2  0
  5 10  1  0
  6 13  2  0
  7 14  1  0
  8 15  2  0
  9 15  1  0
 10 16  2  0
 11 17  1  0
 12 14  2  0
 12 16  1  0
 13 19  1  0
 14 18  1  0
 15 20  1  0
 16 25  1  0
 17 19  1  0
 17 21  2  0
 18 20  1  0
 18 22  2  0
 21 25  1  0
 23 25  2  0
 24 25  2  0
M  END
>  <washed_aromatic_smiles>  (720) 
c1ccc(cc1)NC(=O)c2cccc(c2)S(=O)(=O)Nc3ccccn3

>  <name>  (720) 
neg220142

$$$$
neg228026
     RDKit          3D

 27 29  0  0  0  0  0  0  0  0999 V2000
    1.4740    2.5640   48.7090 C   0  0  0  0  0  0  0  0  0  0  0  0
    1.8260    1.8890   49.8770 C   0  0  0  0  0  0  0  0  0  0  0  0
    1.6100    3.9490   48.6360 C   0  0  0  0  0  0  0  0  0  0  0  0
    2.3010    2.5940   50.9770 C   0  0  0  0  0  0  0  0  0  0  0  0
    2.0840    4.6620   49.7310 C   0  0  0  0  0  0  0  0  0  0  0  0
    5.4430   12.2050   57.6970 C   0  0  0  0  0  0  0  0  0  0  0  0
    4.1850   10.5500   56.4600 C   0  0  0  0  0  0  0  0  0  0  0  0
    2.9790    8.8920   53.0120 C   0  0  0  0  0  0  0  0  0  0  0  0
    5.1000    8.2090   53.9180 C   0  0  0  0  0  0  0  0  0  0  0  0
    5.5060   11.3360   58.7710 C   0  0  0  0  0  0  0  0  0  0  0  0
    4.2960    9.6650   57.5110 C   0  0  0  0  0  0  0  0  0  0  0  0
    3.4410   10.1880   53.0400 C   0  0  0  0  0  0  0  0  0  0  0  0
    5.5320    9.5180   53.9450 C   0  0  0  0  0  0  0  0  0  0  0  0
    2.4090    3.9850   50.9070 C   0  0  0  0  0  0  0  0  0  0  0  0
    3.8160    7.8750   53.4460 C   0  0  0  0  0  0  0  0  0  0  0  0
    4.9280   11.7710   56.4460 C   0  0  0  0  0  0  0  0  0  0  0  0
    5.0260   10.0380   58.6280 C   0  0  0  0  0  0  0  0  0  0  0  0
    4.6850   10.5310   53.5440 C   0  0  0  0  0  0  0  0  0  0  0  0
    2.4620    5.9440   52.4620 C   0  0  0  0  0  0  0  0  0  0  0  0
    2.8920    4.6890   52.0320 N   0  0  0  0  0  0  0  0  0  0  0  0
    3.4630    6.5070   53.2940 N   0  0  0  0  0  0  0  0  0  0  0  0
    5.2510   12.4720   55.3500 N   0  0  0  0  0  0  0  0  0  0  0  0
    4.1420   13.0470   53.2000 O   0  0  0  0  0  0  0  0  0  0  0  0
    6.4540   12.3610   53.1640 O   0  0  0  0  0  0  0  0  0  0  0  0
    5.2870    9.1210   59.5530 F   0  0  0  0  0  0  0  0  0  0  0  0
    0.9140    6.5350   52.1370 S   0  0  0  0  0  0  0  0  0  0  0  0
    5.1630   12.2250   53.7510 S   0  0  2  0  0  0  0  0  0  0  0  0
  1  2  2  0
  1  3  1  0
  2  4  1  0
  3  5  2  0
  4 14  2  0
  5 14  1  0
  6 10  2  0
  6 16  1  0
  7 11  1  0
  7 16  2  0
  8 12  2  0
  8 15  1  0
  9 13  1  0
  9 15  2  0
 10 17  1  0
 11 17  2  0
 12 18  1  0
 13 18  2  0
 14 20  1  0
 15 21  1  0
 16 22  1  0
 17 25  1  0
 18 27  1  0
 19 20  1  0
 19 21  1  0
 19 26  2  0
 22 27  2  0
 23 27  2  0
 27 24  1  6
M  CHG  1  24  -1
M  END
>  <washed_aromatic_smiles>  (721) 
c1ccc(cc1)NC(=S)Nc2ccc(cc2)S(=O)(=O)Nc3ccc(cc3)F

>  <name>  (721) 
neg228026

$$$$
neg222049
     RDKit          3D

 27 29  0  0  0  0  0  0  0  0999 V2000
    1.6250    7.5570   52.5000 C   0  0  0  0  0  0  0  0  0  0  0  0
    1.1490    0.2440   45.7590 C   0  0  0  0  0  0  0  0  0  0  0  0
    3.3440   -0.6170   55.3900 C   0  0  0  0  0  0  0  0  0  0  0  0
    2.7660    7.5390   51.7100 C   0  0  0  0  0  0  0  0  0  0  0  0
    0.7150    6.5160   52.4020 C   0  0  0  0  0  0  0  0  0  0  0  0
    0.4400    1.3490   46.1860 C   0  0  0  0  0  0  0  0  0  0  0  0
    1.4880   -0.7380   46.6790 C   0  0  0  0  0  0  0  0  0  0  0  0
    3.0670    0.7230   55.5600 C   0  0  0  0  0  0  0  0  0  0  0  0
    3.1620   -1.1990   54.1450 C   0  0  0  0  0  0  0  0  0  0  0  0
    2.9950    6.4900   50.8190 C   0  0  0  0  0  0  0  0  0  0  0  0
    0.9590    5.4450   51.5600 C   0  0  0  0  0  0  0  0  0  0  0  0
    0.1750    1.5270   47.5340 C   0  0  0  0  0  0  0  0  0  0  0  0
    1.1260   -0.6050   48.0070 C   0  0  0  0  0  0  0  0  0  0  0  0
    2.6830    1.4680   54.4660 C   0  0  0  0  0  0  0  0  0  0  0  0
    2.8030   -0.4550   53.0530 C   0  0  0  0  0  0  0  0  0  0  0  0
    2.1030    5.4290   50.7630 C   0  0  0  0  0  0  0  0  0  0  0  0
    0.5510    0.5640   48.4730 C   0  0  0  0  0  0  0  0  0  0  0  0
    2.5940    0.9010   53.1960 C   0  0  0  0  0  0  0  0  0  0  0  0
    1.5330    3.2480   49.8370 C   0  0  0  0  0  0  0  0  0  0  0  0
    1.5710    2.1220   50.5970 C   0  0  0  0  0  0  0  0  0  0  0  0
    2.4260    4.3240   49.9420 N   0  0  0  0  0  0  0  0  0  0  0  0
    1.0270   -0.4110   50.8300 O   0  0  0  0  0  0  0  0  0  0  0  0
   -0.8460    1.0600   50.6710 O   0  0  0  0  0  0  0  0  0  0  0  0
    3.1040    3.2220   52.3520 O   0  0  0  0  0  0  0  0  0  0  0  0
    3.9590    1.3060   51.1280 O   0  0  0  0  0  0  0  0  0  0  0  0
    0.4710    0.7490   50.2590 S   0  0  0  0  0  0  0  0  0  0  0  0
    2.8900    1.9410   51.7990 S   0  0  0  0  0  0  0  0  0  0  0  0
  1  4  2  0
  1  5  1  0
  2  6  2  0
  2  7  1  0
  3  8  2  0
  3  9  1  0
  4 10  1  0
  5 11  2  0
  6 12  1  0
  7 13  2  0
  8 14  1  0
  9 15  2  0
 10 16  2  0
 11 16  1  0
 12 17  2  0
 13 17  1  0
 14 18  2  0
 15 18  1  0
 16 21  1  0
 17 26  1  0
 18 27  1  0
 19 20  2  0
 19 21  1  0
 20 26  1  0
 20 27  1  0
 22 26  2  0
 23 26  2  0
 24 27  2  0
 25 27  2  0
M  END
>  <washed_aromatic_smiles>  (722) 
c1ccc(cc1)NC=C(S(=O)(=O)c2ccccc2)S(=O)(=O)c3ccccc3

>  <name>  (722) 
neg222049

$$$$
neg64220
     RDKit          3D

 25 27  0  0  0  0  0  0  0  0999 V2000
   -0.5010   -0.1420   48.5360 C   0  0  0  0  0  0  0  0  0  0  0  0
   -0.6220    0.6250   47.3930 C   0  0  0  0  0  0  0  0  0  0  0  0
    0.1270    0.3960   49.6430 C   0  0  0  0  0  0  0  0  0  0  0  0
   -0.0050    7.9300   52.8080 C   0  0  0  0  0  0  0  0  0  0  0  0
   -0.0080    1.8390   47.2360 C   0  0  0  0  0  0  0  0  0  0  0  0
    0.6330    1.6810   49.5600 C   0  0  0  0  0  0  0  0  0  0  0  0
    3.0190    4.3740   52.4070 C   0  0  0  0  0  0  0  0  0  0  0  0
    3.0880    6.5040   51.2920 C   0  0  0  0  0  0  0  0  0  0  0  0
    2.8240    3.7480   51.2180 C   0  0  0  0  0  0  0  0  0  0  0  0
    2.9900    5.8460   50.0830 C   0  0  0  0  0  0  0  0  0  0  0  0
    0.9800    7.4600   53.6540 C   0  0  0  0  0  0  0  0  0  0  0  0
    0.2610    9.1790   52.3500 C   0  0  0  0  0  0  0  0  0  0  0  0
    0.6250    2.3800   48.3320 C   0  0  0  0  0  0  0  0  0  0  0  0
    3.2470    5.7660   52.4960 C   0  0  0  0  0  0  0  0  0  0  0  0
    2.8630    4.4620   50.0370 C   0  0  0  0  0  0  0  0  0  0  0  0
    2.0740    8.2580   53.6940 C   0  0  0  0  0  0  0  0  0  0  0  0
    1.2500    3.6130   48.1110 N   0  0  0  0  0  0  0  0  0  0  0  0
    3.6210    6.2700   53.6680 N   0  0  0  0  0  0  0  0  0  0  0  0
    3.1350    2.1910   48.8850 O   0  0  0  0  0  0  0  0  0  0  0  0
    3.6740    4.1390   47.5980 O   0  0  0  0  0  0  0  0  0  0  0  0
    3.6110    7.7260   55.7070 O   0  0  0  0  0  0  0  0  0  0  0  0
    4.6480    8.5750   53.6740 O   0  0  0  0  0  0  0  0  0  0  0  0
    1.8770    9.6350   52.7230 S   0  0  0  0  0  0  0  0  0  0  0  0
    2.8340    3.5350   48.5640 S   0  0  0  0  0  0  0  0  0  0  0  0
    3.6360    7.7570   54.2730 S   0  0  2  0  0  0  0  0  0  0  0  0
  1  2  2  0
  1  3  1  0
  2  5  1  0
  3  6  2  0
  4 11  1  0
  4 12  2  0
  5 13  2  0
  6 13  1  0
  7  9  2  0
  7 14  1  0
  8 10  1  0
  8 14  2  0
  9 15  1  0
 10 15  2  0
 11 16  2  0
 12 23  1  0
 13 17  1  0
 14 18  1  0
 15 24  1  0
 16 23  1  0
 16 25  1  0
 17 24  1  0
 18 25  2  0
 19 24  2  0
 20 24  2  0
 21 25  2  0
 25 22  1  1
M  CHG  1  22  -1
M  END
>  <washed_aromatic_smiles>  (723) 
c1ccc(cc1)NS(=O)(=O)c2ccc(cc2)NS(=O)(=O)c3cccs3

>  <name>  (723) 
neg64220

$$$$
neg306714
     RDKit          3D

 26 28  0  0  0  0  0  0  0  0999 V2000
    5.3950   12.3010   58.0990 C   0  0  0  0  0  0  0  0  0  0  0  0
    5.7670   12.5750   56.7890 C   0  0  0  0  0  0  0  0  0  0  0  0
    4.5950   11.1970   58.3760 C   0  0  0  0  0  0  0  0  0  0  0  0
    1.3490    5.8970   52.0130 C   0  0  0  0  0  0  0  0  0  0  0  0
    3.0010    6.9740   50.6840 C   0  0  0  0  0  0  0  0  0  0  0  0
    5.3600   11.7400   55.7580 C   0  0  0  0  0  0  0  0  0  0  0  0
    4.1630   10.3640   57.3570 C   0  0  0  0  0  0  0  0  0  0  0  0
    1.3460    4.8390   51.1040 C   0  0  0  0  0  0  0  0  0  0  0  0
    3.0310    5.9080   49.8030 C   0  0  0  0  0  0  0  0  0  0  0  0
    2.2000    6.9780   51.8260 C   0  0  0  0  0  0  0  0  0  0  0  0
    4.5460   10.6410   56.0520 C   0  0  0  0  0  0  0  0  0  0  0  0
    2.1700    4.8420   49.9800 C   0  0  0  0  0  0  0  0  0  0  0  0
    3.9520    9.9410   53.7750 C   0  0  0  0  0  0  0  0  0  0  0  0
    0.9140    1.1690   48.6750 C   0  0  0  0  0  0  0  0  0  0  0  0
    2.4760    1.5870   50.5060 C   0  0  0  0  0  0  0  0  0  0  0  0
    0.3320    0.0170   49.5030 C   0  0  0  0  0  0  0  0  0  0  0  0
    1.8130    0.4250   51.2640 C   0  0  0  0  0  0  0  0  0  0  0  0
    2.2300    8.1500   52.8210 C   0  0  0  0  0  0  0  0  0  0  0  0
    3.6540    8.7160   52.9740 C   0  0  0  0  0  0  0  0  0  0  0  0
    1.6010    2.1900   49.4860 N   0  0  0  0  0  0  0  0  0  0  0  0
    4.1520   11.0180   53.2600 O   0  0  0  0  0  0  0  0  0  0  0  0
    1.1440    3.9630   47.7530 O   0  0  0  0  0  0  0  0  0  0  0  0
    3.4290    3.3880   48.2110 O   0  0  0  0  0  0  0  0  0  0  0  0
    1.3150   -0.5470   50.3590 O   0  0  0  0  0  0  0  0  0  0  0  0
    4.0910    9.7530   55.0980 O   0  0  0  0  0  0  0  0  0  0  0  0
    2.1130    3.5750   48.7140 S   0  0  0  0  0  0  0  0  0  0  0  0
  1  2  2  0
  1  3  1  0
  2  6  1  0
  3  7  2  0
  4  8  2  0
  4 10  1  0
  5  9  1  0
  5 10  2  0
  6 11  2  0
  7 11  1  0
  8 12  1  0
  9 12  2  0
 10 18  1  0
 11 25  1  0
 12 26  1  0
 13 19  1  0
 13 21  2  0
 13 25  1  0
 14 16  1  0
 14 20  1  0
 15 17  1  0
 15 20  1  0
 16 24  1  0
 17 24  1  0
 18 19  1  0
 20 26  1  0
 22 26  2  0
 23 26  2  0
M  END
>  <washed_aromatic_smiles>  (724) 
c1ccc(cc1)OC(=O)CCc2ccc(cc2)S(=O)(=O)N3CCOCC3

>  <name>  (724) 
neg306714

$$$$
neg61225
     RDKit          3D

 26 28  0  0  0  0  0  0  0  0999 V2000
    4.1220    9.8810   55.6880 C   0  0  0  0  0  0  0  0  0  0  0  0
    3.1100    8.9280   55.5970 C   0  0  0  0  0  0  0  0  0  0  0  0
    4.7890   10.3050   54.5400 C   0  0  0  0  0  0  0  0  0  0  0  0
    2.7650    8.3850   54.3610 C   0  0  0  0  0  0  0  0  0  0  0  0
    4.4470    9.7740   53.3000 C   0  0  0  0  0  0  0  0  0  0  0  0
    0.9370   -0.0690   51.9670 C   0  0  0  0  0  0  0  0  0  0  0  0
    3.0640    0.5580   51.0570 C   0  0  0  0  0  0  0  0  0  0  0  0
    1.4760   -0.1140   53.2380 C   0  0  0  0  0  0  0  0  0  0  0  0
    3.5650    0.6540   52.3470 C   0  0  0  0  0  0  0  0  0  0  0  0
    3.4430    8.8110   53.2170 C   0  0  0  0  0  0  0  0  0  0  0  0
    1.7130    0.2970   50.8690 C   0  0  0  0  0  0  0  0  0  0  0  0
    2.7670    0.3290   53.4480 C   0  0  0  0  0  0  0  0  0  0  0  0
    2.9610    6.3430   50.3500 C   0  0  0  0  0  0  0  0  0  0  0  0
    1.3460    4.6100   50.7690 C   0  0  0  0  0  0  0  0  0  0  0  0
    2.5140    4.5960   48.6390 C   0  0  0  0  0  0  0  0  0  0  0  0
    1.4000    3.0990   50.7330 C   0  0  0  0  0  0  0  0  0  0  0  0
    2.3120    3.0590   48.5200 C   0  0  0  0  0  0  0  0  0  0  0  0
    2.6360    6.9610   51.7250 C   0  0  0  0  0  0  0  0  0  0  0  0
    2.4410    5.1470   50.0200 N   0  0  0  0  0  0  0  0  0  0  0  0
    1.2830    2.5020   49.4100 N   0  0  0  0  0  0  0  0  0  0  0  0
    3.6270    6.9290   49.5100 O   0  0  0  0  0  0  0  0  0  0  0  0
    1.2760    0.2300   48.2310 O   0  0  0  0  0  0  0  0  0  0  0  0
   -0.5270    0.7370   49.7290 O   0  0  0  0  0  0  0  0  0  0  0  0
    3.1570    8.2970   51.9690 O   0  0  0  0  0  0  0  0  0  0  0  0
    0.8470    0.8780   49.4180 S   0  0  0  0  0  0  0  0  0  0  0  0
    3.2950    0.5670   55.2460 Br  0  0  0  0  0  0  0  0  0  0  0  0
  1  2  2  0
  1  3  1  0
  2  4  1  0
  3  5  2  0
  4 10  2  0
  5 10  1  0
  6  8  2  0
  6 11  1  0
  7  9  1  0
  7 11  2  0
  8 12  1  0
  9 12  2  0
 10 24  1  0
 11 25  1  0
 12 26  1  0
 13 18  1  0
 13 19  1  0
 13 21  2  0
 14 16  1  0
 14 19  1  0
 15 17  1  0
 15 19  1  0
 16 20  1  0
 17 20  1  0
 18 24  1  0
 20 25  1  0
 22 25  2  0
 23 25  2  0
M  END
>  <washed_aromatic_smiles>  (725) 
c1ccc(cc1)OCC(=O)N2CCN(CC2)S(=O)(=O)c3ccc(cc3)Br

>  <name>  (725) 
neg61225

$$$$
neg208659
     RDKit          3D

 26 28  0  0  0  0  0  0  0  0999 V2000
    1.8710    8.5380   54.8310 C   0  0  0  0  0  0  0  0  0  0  0  0
    0.3730    2.1740   47.0750 C   0  0  0  0  0  0  0  0  0  0  0  0
    0.3300    0.8730   47.5430 C   0  0  0  0  0  0  0  0  0  0  0  0
    0.7100    8.3400   54.0860 C   0  0  0  0  0  0  0  0  0  0  0  0
    3.0550    7.9050   54.4650 C   0  0  0  0  0  0  0  0  0  0  0  0
    3.1790   -0.3880   55.1710 C   0  0  0  0  0  0  0  0  0  0  0  0
    1.0440    3.1440   47.8160 C   0  0  0  0  0  0  0  0  0  0  0  0
    0.9600    0.5060   48.7160 C   0  0  0  0  0  0  0  0  0  0  0  0
    0.7330    7.5270   52.9600 C   0  0  0  0  0  0  0  0  0  0  0  0
    3.0840    7.0780   53.3500 C   0  0  0  0  0  0  0  0  0  0  0  0
    3.0530   -0.9200   53.8830 C   0  0  0  0  0  0  0  0  0  0  0  0
    3.0220    0.9630   55.2020 C   0  0  0  0  0  0  0  0  0  0  0  0
    1.6340    2.8060   49.0210 C   0  0  0  0  0  0  0  0  0  0  0  0
    1.6650    1.4630   49.4950 C   0  0  0  0  0  0  0  0  0  0  0  0
    1.9230    6.9090   52.5910 C   0  0  0  0  0  0  0  0  0  0  0  0
    2.8870    0.0290   52.9260 C   0  0  0  0  0  0  0  0  0  0  0  0
    2.8180    4.9590   49.5080 C   0  0  0  0  0  0  0  0  0  0  0  0
    3.0700    5.9310   50.6280 C   0  0  0  0  0  0  0  0  0  0  0  0
    2.1710    3.8140   49.8720 N   0  0  0  0  0  0  0  0  0  0  0  0
    2.3630    1.1790   50.5940 N   0  0  0  0  0  0  0  0  0  0  0  0
    3.1810    5.1560   48.3620 O   0  0  0  0  0  0  0  0  0  0  0  0
    2.0310   -1.2920   50.8750 O   0  0  0  0  0  0  0  0  0  0  0  0
    4.2880   -0.3660   50.7970 O   0  0  0  0  0  0  0  0  0  0  0  0
    1.9020    6.1270   51.4640 O   0  0  0  0  0  0  0  0  0  0  0  0
    2.7580    1.5930   53.6220 S   0  0  0  0  0  0  0  0  0  0  0  0
    2.9150   -0.2100   51.1770 S   0  0  2  0  0  0  0  0  0  0  0  0
  1  4  2  0
  1  5  1  0
  2  3  2  0
  2  7  1  0
  3  8  1  0
  4  9  1  0
  5 10  2  0
  6 11  1  0
  6 12  2  0
  7 13  2  0
  8 14  2  0
  9 15  2  0
 10 15  1  0
 11 16  2  0
 12 25  1  0
 13 14  1  0
 13 19  1  0
 14 20  1  0
 15 24  1  0
 16 25  1  0
 16 26  1  0
 17 18  1  0
 17 19  1  0
 17 21  2  0
 18 24  1  0
 20 26  2  0
 22 26  2  0
 26 23  1  6
M  CHG  1  23  -1
M  END
>  <washed_aromatic_smiles>  (726) 
c1ccc(cc1)OCC(=O)Nc2ccccc2NS(=O)(=O)c3cccs3

>  <name>  (726) 
neg208659

$$$$
neg13814
     RDKit          3D

 28 30  0  0  0  0  0  0  0  0999 V2000
    1.1970    0.1510   45.8260 C   0  0  0  0  0  0  0  0  0  0  0  0
    0.5190    1.3350   46.0270 C   0  0  0  0  0  0  0  0  0  0  0  0
    1.4610   -0.6980   46.8990 C   0  0  0  0  0  0  0  0  0  0  0  0
    0.7100    6.4330   52.3910 C   0  0  0  0  0  0  0  0  0  0  0  0
    3.0180    5.8150   52.0420 C   0  0  0  0  0  0  0  0  0  0  0  0
    0.1710    1.7190   47.3070 C   0  0  0  0  0  0  0  0  0  0  0  0
    1.0380   -0.3580   48.1800 C   0  0  0  0  0  0  0  0  0  0  0  0
    1.1140    7.3480   53.3690 C   0  0  0  0  0  0  0  0  0  0  0  0
    3.3960    6.6840   53.0500 C   0  0  0  0  0  0  0  0  0  0  0  0
    5.4220   12.8170   56.3350 C   0  0  0  0  0  0  0  0  0  0  0  0
    5.4570   12.7810   54.9750 C   0  0  0  0  0  0  0  0  0  0  0  0
    4.9490   11.6840   57.0590 C   0  0  0  0  0  0  0  0  0  0  0  0
    1.6680    5.6250   51.7680 C   0  0  0  0  0  0  0  0  0  0  0  0
    0.4440    0.8800   48.3790 C   0  0  0  0  0  0  0  0  0  0  0  0
    2.4630    7.4500   53.7340 C   0  0  0  0  0  0  0  0  0  0  0  0
    4.4780   10.5780   55.0450 C   0  0  0  0  0  0  0  0  0  0  0  0
    2.1050    3.8120   50.1270 C   0  0  0  0  0  0  0  0  0  0  0  0
    2.3080    2.3140   50.3220 C   0  0  0  0  0  0  0  0  0  0  0  0
    1.1120    1.4090   50.6790 C   0  0  0  0  0  0  0  0  0  0  0  0
    5.0360   11.6390   54.3370 N   0  0  0  0  0  0  0  0  0  0  0  0
    4.5090   10.6380   56.4620 N   0  0  0  0  0  0  0  0  0  0  0  0
    1.2770    4.4960   50.9930 N   0  0  0  0  0  0  0  0  0  0  0  0
    3.9200    9.6590   54.3550 N   0  0  0  0  0  0  0  0  0  0  0  0
    2.7600    4.4330   49.3110 O   0  0  0  0  0  0  0  0  0  0  0  0
    3.9690    7.6660   55.8660 O   0  0  0  0  0  0  0  0  0  0  0  0
    1.9580    9.0130   55.7760 O   0  0  0  0  0  0  0  0  0  0  0  0
    0.1300    1.3060   49.6350 O   0  0  0  0  0  0  0  0  0  0  0  0
    3.0770    8.4630   55.0850 S   0  0  0  0  0  0  0  0  0  0  0  0
  1  2  2  0
  1  3  1  0
  2  6  1  0
  3  7  2  0
  4  8  2  0
  4 13  1  0
  5  9  1  0
  5 13  2  0
  6 14  2  0
  7 14  1  0
  8 15  1  0
  9 15  2  0
 10 11  2  0
 10 12  1  0
 11 20  1  0
 12 21  2  0
 13 22  1  0
 14 27  1  0
 15 28  1  0
 16 20  1  0
 16 21  1  0
 16 23  2  0
 17 18  1  0
 17 22  1  0
 17 24  2  0
 18 19  1  0
 19 27  1  0
 23 28  1  0
 25 28  2  0
 26 28  2  0
M  END
>  <washed_aromatic_smiles>  (727) 
c1ccc(cc1)OCCC(=O)Nc2ccc(cc2)S(=O)(=O)Nc3ncccn3

>  <name>  (727) 
neg13814

$$$$
neg280996
     RDKit          3D

 25 27  0  0  0  0  0  0  0  0999 V2000
    2.2630    2.5910   49.3280 C   0  0  0  0  0  0  0  0  0  0  0  0
    2.7170    2.5940   50.6420 C   0  0  0  0  0  0  0  0  0  0  0  0
    1.5170    3.6590   48.8430 C   0  0  0  0  0  0  0  0  0  0  0  0
    2.4240    3.6630   51.4790 C   0  0  0  0  0  0  0  0  0  0  0  0
    1.1810    4.7070   49.6910 C   0  0  0  0  0  0  0  0  0  0  0  0
    3.1510    6.4410   52.9730 C   0  0  0  0  0  0  0  0  0  0  0  0
    1.3930    8.0090   52.5010 C   0  0  0  0  0  0  0  0  0  0  0  0
    3.9250    7.4870   53.4320 C   0  0  0  0  0  0  0  0  0  0  0  0
    2.2260    9.0580   52.8970 C   0  0  0  0  0  0  0  0  0  0  0  0
    1.6190    4.7040   51.0110 C   0  0  0  0  0  0  0  0  0  0  0  0
    1.8920    6.7090   52.4610 C   0  0  0  0  0  0  0  0  0  0  0  0
    3.5240    8.8120   53.3540 C   0  0  0  0  0  0  0  0  0  0  0  0
    5.8670    9.1260   58.8310 C   0  0  0  0  0  0  0  0  0  0  0  0
    3.7990    9.9270   57.5090 C   0  0  0  0  0  0  0  0  0  0  0  0
    4.8870    7.8510   56.8120 C   0  0  0  0  0  0  0  0  0  0  0  0
    4.5370   10.7190   56.4140 C   0  0  0  0  0  0  0  0  0  0  0  0
    5.7480    8.6460   55.8470 C   0  0  0  0  0  0  0  0  0  0  0  0
    4.6180    8.7260   58.0340 C   0  0  0  0  0  0  0  0  0  0  0  0
    5.1100    9.8740   55.3560 N   0  0  0  0  0  0  0  0  0  0  0  0
    6.7710    8.2710   58.9530 O   0  0  0  0  0  0  0  0  0  0  0  0
    5.9740    9.7260   53.0110 O   0  0  0  0  0  0  0  0  0  0  0  0
    4.2780   11.3640   53.4700 O   0  0  0  0  0  0  0  0  0  0  0  0
    5.8890   10.2650   59.3440 O   0  0  0  0  0  0  0  0  0  0  0  0
    1.1400    5.7200   51.8500 O   0  0  0  0  0  0  0  0  0  0  0  0
    4.7920   10.0620   53.7280 S   0  0  0  0  0  0  0  0  0  0  0  0
  1  2  2  0
  1  3  1  0
  2  4  1  0
  3  5  2  0
  4 10  2  0
  5 10  1  0
  6  8  2  0
  6 11  1  0
  7  9  1  0
  7 11  2  0
  8 12  1  0
  9 12  2  0
 10 24  1  0
 11 24  1  0
 12 25  1  0
 13 18  1  0
 13 20  1  0
 13 23  2  0
 14 16  1  0
 14 18  1  0
 15 17  1  0
 15 18  1  0
 16 19  1  0
 17 19  1  0
 19 25  1  0
 21 25  2  0
 22 25  2  0
M  CHG  1  20  -1
M  END
>  <washed_aromatic_smiles>  (728) 
c1ccc(cc1)Oc2ccc(cc2)S(=O)(=O)N3CCC(CC3)C(=O)O

>  <name>  (728) 
neg280996

$$$$
neg225705
     RDKit          3D

 26 28  0  0  0  0  0  0  0  0999 V2000
    2.2310   -0.4720   54.5820 C   0  0  0  0  0  0  0  0  0  0  0  0
    1.1890   -0.6160   53.6780 C   0  0  0  0  0  0  0  0  0  0  0  0
    3.2130    0.4760   54.3620 C   0  0  0  0  0  0  0  0  0  0  0  0
    3.4160    8.4090   54.9770 C   0  0  0  0  0  0  0  0  0  0  0  0
    2.1180    8.7380   55.3520 C   0  0  0  0  0  0  0  0  0  0  0  0
    1.1040    0.1970   52.5600 C   0  0  0  0  0  0  0  0  0  0  0  0
    3.2060    1.2040   53.1810 C   0  0  0  0  0  0  0  0  0  0  0  0
    3.6480    7.7710   53.7630 C   0  0  0  0  0  0  0  0  0  0  0  0
    1.1560    0.5870   49.4850 C   0  0  0  0  0  0  0  0  0  0  0  0
    1.0430    8.3930   54.5350 C   0  0  0  0  0  0  0  0  0  0  0  0
    0.7060    0.5060   48.1800 C   0  0  0  0  0  0  0  0  0  0  0  0
    1.3480    2.8200   47.7980 C   0  0  0  0  0  0  0  0  0  0  0  0
    1.8020    2.9000   49.1090 C   0  0  0  0  0  0  0  0  0  0  0  0
    2.1490    1.0760   52.3010 C   0  0  0  0  0  0  0  0  0  0  0  0
    1.6970    1.7840   49.9510 C   0  0  0  0  0  0  0  0  0  0  0  0
    2.5800    7.4870   52.9130 C   0  0  0  0  0  0  0  0  0  0  0  0
    0.8330    1.6040   47.3310 C   0  0  0  0  0  0  0  0  0  0  0  0
    1.2740    7.7510   53.3210 C   0  0  0  0  0  0  0  0  0  0  0  0
    2.1330    4.7840   50.6960 C   0  0  0  0  0  0  0  0  0  0  0  0
    3.1950    5.6520   51.3380 C   0  0  0  0  0  0  0  0  0  0  0  0
    2.4640    4.0910   49.5520 N   0  0  0  0  0  0  0  0  0  0  0  0
    1.0500    4.6060   51.2060 O   0  0  0  0  0  0  0  0  0  0  0  0
    2.2130    1.8920   51.2140 O   0  0  0  0  0  0  0  0  0  0  0  0
    2.7670    6.9960   51.6290 O   0  0  0  0  0  0  0  0  0  0  0  0
    0.4780    1.3570   45.6670 Cl  0  0  0  0  0  0  0  0  0  0  0  0
   -0.0400    7.2490   52.3380 Cl  0  0  0  0  0  0  0  0  0  0  0  0
  1  2  2  0
  1  3  1  0
  2  6  1  0
  3  7  2  0
  4  5  2  0
  4  8  1  0
  5 10  1  0
  6 14  2  0
  7 14  1  0
  8 16  2  0
  9 11  2  0
  9 15  1  0
 10 18  2  0
 11 17  1  0
 12 13  1  0
 12 17  2  0
 13 15  2  0
 13 21  1  0
 14 23  1  0
 15 23  1  0
 16 18  1  0
 16 24  1  0
 17 25  1  0
 18 26  1  0
 19 20  1  0
 19 21  1  0
 19 22  2  0
 20 24  1  0
M  END
>  <washed_aromatic_smiles>  (729) 
c1ccc(cc1)Oc2ccc(cc2NC(=O)COc3ccccc3Cl)Cl

>  <name>  (729) 
neg225705

$$$$
neg221872
     RDKit          3D

 25 27  0  0  0  0  0  0  0  0999 V2000
    3.1810   -0.4930   54.7830 C   0  0  0  0  0  0  0  0  0  0  0  0
    0.2810    8.3160   53.4710 C   0  0  0  0  0  0  0  0  0  0  0  0
    3.0850    0.8850   54.8700 C   0  0  0  0  0  0  0  0  0  0  0  0
    2.9100   -1.1300   53.5740 C   0  0  0  0  0  0  0  0  0  0  0  0
    0.0030    7.3690   52.4860 C   0  0  0  0  0  0  0  0  0  0  0  0
    1.5660    8.4080   53.9990 C   0  0  0  0  0  0  0  0  0  0  0  0
    2.7130    1.6050   53.7490 C   0  0  0  0  0  0  0  0  0  0  0  0
    2.4800   -0.4240   52.4650 C   0  0  0  0  0  0  0  0  0  0  0  0
    0.7070    0.4240   49.8950 C   0  0  0  0  0  0  0  0  0  0  0  0
    0.9850    6.5370   52.0110 C   0  0  0  0  0  0  0  0  0  0  0  0
    2.5620    7.5640   53.5350 C   0  0  0  0  0  0  0  0  0  0  0  0
    0.3540    0.2730   48.5570 C   0  0  0  0  0  0  0  0  0  0  0  0
    1.4130    2.3920   48.0240 C   0  0  0  0  0  0  0  0  0  0  0  0
    1.7850    2.5280   49.3590 C   0  0  0  0  0  0  0  0  0  0  0  0
    2.3540    0.9510   52.5770 C   0  0  0  0  0  0  0  0  0  0  0  0
    1.4570    1.5330   50.2790 C   0  0  0  0  0  0  0  0  0  0  0  0
    2.2630    6.6320   52.5390 C   0  0  0  0  0  0  0  0  0  0  0  0
    0.7410    1.2420   47.6220 C   0  0  0  0  0  0  0  0  0  0  0  0
    2.7010    4.8700   49.3280 C   0  0  0  0  0  0  0  0  0  0  0  0
    3.4850    5.8490   50.1630 C   0  0  0  0  0  0  0  0  0  0  0  0
    2.5220    3.6300   49.8670 N   0  0  0  0  0  0  0  0  0  0  0  0
    2.2640    5.1460   48.2380 O   0  0  0  0  0  0  0  0  0  0  0  0
    1.9000    1.7410   51.5670 O   0  0  0  0  0  0  0  0  0  0  0  0
    3.4480    5.5350   51.9690 S   0  0  0  0  0  0  0  0  0  0  0  0
    0.4750    1.0190   45.9340 Cl  0  0  0  0  0  0  0  0  0  0  0  0
  1  3  2  0
  1  4  1  0
  2  5  2  0
  2  6  1  0
  3  7  1  0
  4  8  2  0
  5 10  1  0
  6 11  2  0
  7 15  2  0
  8 15  1  0
  9 12  2  0
  9 16  1  0
 10 17  2  0
 11 17  1  0
 12 18  1  0
 13 14  1  0
 13 18  2  0
 14 16  2  0
 14 21  1  0
 15 23  1  0
 16 23  1  0
 17 24  1  0
 18 25  1  0
 19 20  1  0
 19 21  1  0
 19 22  2  0
 20 24  1  0
M  END
>  <washed_aromatic_smiles>  (730) 
c1ccc(cc1)Oc2ccc(cc2NC(=O)CSc3ccccc3)Cl

>  <name>  (730) 
neg221872

$$$$
neg128300
     RDKit          3D

 39 43  0  0  0  0  0  0  0  0999 V2000
    3.4260    4.8830   48.1600 C   0  0  0  0  0  0  0  0  0  0  0  0
    2.8870   -1.3380   53.0560 C   0  0  0  0  0  0  0  0  0  0  0  0
    5.1590   13.8220   55.2530 C   0  0  0  0  0  0  0  0  0  0  0  0
    5.3580    6.9720   58.7160 C   0  0  0  0  0  0  0  0  0  0  0  0
    3.6710    3.5460   47.9420 C   0  0  0  0  0  0  0  0  0  0  0  0
    2.4040    5.2570   48.9580 C   0  0  0  0  0  0  0  0  0  0  0  0
    3.1310   -0.1440   53.6930 C   0  0  0  0  0  0  0  0  0  0  0  0
    2.4240   -1.3670   51.7530 C   0  0  0  0  0  0  0  0  0  0  0  0
    5.0200   13.0470   56.3820 C   0  0  0  0  0  0  0  0  0  0  0  0
    5.6150   13.2960   54.0660 C   0  0  0  0  0  0  0  0  0  0  0  0
    5.9570    8.2100   58.6620 C   0  0  0  0  0  0  0  0  0  0  0  0
    4.6810    6.5140   57.6020 C   0  0  0  0  0  0  0  0  0  0  0  0
   -0.1620    6.5080   52.3620 C   0  0  0  0  0  0  0  0  0  0  0  0
    0.5150    5.3590   52.0080 C   0  0  0  0  0  0  0  0  0  0  0  0
    0.5070    7.4980   53.0350 C   0  0  0  0  0  0  0  0  0  0  0  0
    2.9270    2.6290   48.6840 C   0  0  0  0  0  0  0  0  0  0  0  0
    1.4430    4.3550   49.3050 C   0  0  0  0  0  0  0  0  0  0  0  0
    2.9350    1.0290   53.0020 C   0  0  0  0  0  0  0  0  0  0  0  0
    2.2610   -0.1970   51.0440 C   0  0  0  0  0  0  0  0  0  0  0  0
    5.1740   11.6870   56.2820 C   0  0  0  0  0  0  0  0  0  0  0  0
    5.9630   11.9680   54.0230 C   0  0  0  0  0  0  0  0  0  0  0  0
    5.9140    8.9330   57.4800 C   0  0  0  0  0  0  0  0  0  0  0  0
    4.5490    7.3080   56.4530 C   0  0  0  0  0  0  0  0  0  0  0  0
    2.5640    6.1850   52.8100 C   0  0  0  0  0  0  0  0  0  0  0  0
    1.8700    5.1870   52.1740 C   0  0  0  0  0  0  0  0  0  0  0  0
    1.8510    7.2890   53.2680 C   0  0  0  0  0  0  0  0  0  0  0  0
    1.8580    3.0460   49.4240 C   0  0  0  0  0  0  0  0  0  0  0  0
    2.4920    1.0120   51.6760 C   0  0  0  0  0  0  0  0  0  0  0  0
    5.6570   11.1320   55.0980 C   0  0  0  0  0  0  0  0  0  0  0  0
    5.2500    8.5020   56.3310 C   0  0  0  0  0  0  0  0  0  0  0  0
    3.4220    8.8590   52.9230 C   0  0  0  0  0  0  0  0  0  0  0  0
    2.5400    3.8780   51.8120 C   0  0  0  0  0  0  0  0  0  0  0  0
    4.3420    9.8040   53.5060 C   0  0  0  0  0  0  0  0  0  0  0  0
    2.5770    8.2980   53.7930 N   0  0  0  0  0  0  0  0  0  0  0  0
    3.3710    8.6440   51.7320 O   0  0  0  0  0  0  0  0  0  0  0  0
    0.2900    2.0650   51.3530 O   0  0  0  0  0  0  0  0  0  0  0  0
    6.7410    8.8450   54.0740 O   0  0  0  0  0  0  0  0  0  0  0  0
    1.6760    2.4130   51.0380 P   0  0  0  0  0  0  0  0  0  0  0  0
    5.5580    9.4050   54.7290 P   0  0  0  0  0  0  0  0  0  0  0  0
  1  5  2  0
  1  6  1  0
  2  7  2  0
  2  8  1  0
  3  9  2  0
  3 10  1  0
  4 11  2  0
  4 12  1  0
  5 16  1  0
  6 17  2  0
  7 18  1  0
  8 19  2  0
  9 20  1  0
 10 21  2  0
 11 22  1  0
 12 23  2  0
 13 14  2  0
 13 15  1  0
 14 25  1  0
 15 26  2  0
 16 27  2  0
 17 27  1  0
 18 28  2  0
 19 28  1  0
 20 29  2  0
 21 29  1  0
 22 30  2  0
 23 30  1  0
 24 25  2  0
 24 26  1  0
 25 32  1  0
 26 34  1  0
 27 38  1  0
 28 38  1  0
 29 39  1  0
 30 39  1  0
 31 33  1  0
 31 34  1  0
 31 35  2  0
 32 38  1  0
 33 39  1  0
 36 38  2  0
 37 39  2  0
M  END
>  <washed_aromatic_smiles>  (731) 
c1ccc(cc1)P(=O)(Cc2cccc(c2)NC(=O)CP(=O)(c3ccccc3)c4ccccc4)c5ccccc5

>  <name>  (731) 
neg128300

$$$$
neg149751
     RDKit          3D

 29 31  0  0  0  0  0  0  0  0999 V2000
   -0.4830   -0.0860   49.0820 C   0  0  0  0  0  0  0  0  0  0  0  0
   -0.8750    0.4570   50.3050 C   0  0  0  0  0  0  0  0  0  0  0  0
    0.7400   -0.7310   48.9820 C   0  0  0  0  0  0  0  0  0  0  0  0
    1.4580    5.0260   51.3660 C   0  0  0  0  0  0  0  0  0  0  0  0
    3.4480    5.4350   52.6760 C   0  0  0  0  0  0  0  0  0  0  0  0
   -0.0250    0.4430   51.3930 C   0  0  0  0  0  0  0  0  0  0  0  0
    1.5610   -0.8110   50.0980 C   0  0  0  0  0  0  0  0  0  0  0  0
    1.0110    6.3100   51.6760 C   0  0  0  0  0  0  0  0  0  0  0  0
    3.0060    6.6950   52.9700 C   0  0  0  0  0  0  0  0  0  0  0  0
    5.3240   11.0690   55.4320 C   0  0  0  0  0  0  0  0  0  0  0  0
    4.4370   10.1420   55.8800 C   0  0  0  0  0  0  0  0  0  0  0  0
    5.4210   11.3360   54.0350 C   0  0  0  0  0  0  0  0  0  0  0  0
    2.6260    4.5680   51.9700 C   0  0  0  0  0  0  0  0  0  0  0  0
    1.2010   -0.1860   51.2860 C   0  0  0  0  0  0  0  0  0  0  0  0
    1.7650    7.1260   52.5270 C   0  0  0  0  0  0  0  0  0  0  0  0
    3.5940    9.9320   53.6170 C   0  0  0  0  0  0  0  0  0  0  0  0
    2.9790    2.1850   51.2490 C   0  0  0  0  0  0  0  0  0  0  0  0
    3.5850    0.9430   51.8610 C   0  0  0  0  0  0  0  0  0  0  0  0
    3.6160    9.5330   54.9630 N   0  0  0  0  0  0  0  0  0  0  0  0
    4.6250   10.7990   53.1860 N   0  0  0  0  0  0  0  0  0  0  0  0
    2.9480    3.2120   52.1300 N   0  0  0  0  0  0  0  0  0  0  0  0
    2.6170    9.6150   52.8490 N   0  0  0  0  0  0  0  0  0  0  0  0
    2.5050    2.2770   50.1320 O   0  0  0  0  0  0  0  0  0  0  0  0
    1.8040    0.5120   53.7370 O   0  0  0  0  0  0  0  0  0  0  0  0
    2.9100   -1.4270   52.7900 O   0  0  0  0  0  0  0  0  0  0  0  0
    1.0590    8.5600   54.5510 O   0  0  0  0  0  0  0  0  0  0  0  0
    0.1650    9.1940   52.3940 O   0  0  0  0  0  0  0  0  0  0  0  0
    2.3730   -0.1280   52.6010 S   0  0  0  0  0  0  0  0  0  0  0  0
    1.2760    8.7100   53.1460 S   0  0  0  0  0  0  0  0  0  0  0  0
  1  2  2  0
  1  3  1  0
  2  6  1  0
  3  7  2  0
  4  8  2  0
  4 13  1  0
  5  9  1  0
  5 13  2  0
  6 14  2  0
  7 14  1  0
  8 15  1  0
  9 15  2  0
 10 11  2  0
 10 12  1  0
 11 19  1  0
 12 20  2  0
 13 21  1  0
 14 28  1  0
 15 29  1  0
 16 19  1  0
 16 20  1  0
 16 22  2  0
 17 18  1  0
 17 21  1  0
 17 23  2  0
 18 28  1  0
 22 29  1  0
 24 28  2  0
 25 28  2  0
 26 29  2  0
 27 29  2  0
M  END
>  <washed_aromatic_smiles>  (732) 
c1ccc(cc1)S(=O)(=O)CC(=O)Nc2ccc(cc2)S(=O)(=O)Nc3ncccn3

>  <name>  (732) 
neg149751

$$$$
neg27784
     RDKit          3D

 25 27  0  0  0  0  0  0  0  0999 V2000
    2.1670   -0.4970   53.7490 C   0  0  0  0  0  0  0  0  0  0  0  0
    2.6080   -1.2950   52.7080 C   0  0  0  0  0  0  0  0  0  0  0  0
    1.2190    0.4770   53.4930 C   0  0  0  0  0  0  0  0  0  0  0  0
    2.1540   -1.0820   51.4170 C   0  0  0  0  0  0  0  0  0  0  0  0
    0.7000    0.6400   52.2140 C   0  0  0  0  0  0  0  0  0  0  0  0
    3.1710    9.1520   52.9330 C   0  0  0  0  0  0  0  0  0  0  0  0
    3.5470    7.4180   54.4860 C   0  0  0  0  0  0  0  0  0  0  0  0
    4.1130    9.9220   53.6080 C   0  0  0  0  0  0  0  0  0  0  0  0
    4.4600    8.2470   55.1350 C   0  0  0  0  0  0  0  0  0  0  0  0
    2.8890    7.8650   53.3530 C   0  0  0  0  0  0  0  0  0  0  0  0
    1.1930   -0.1220   51.1600 C   0  0  0  0  0  0  0  0  0  0  0  0
    1.7290    5.4550   50.7040 C   0  0  0  0  0  0  0  0  0  0  0  0
    2.4620    3.0630   50.6270 C   0  0  0  0  0  0  0  0  0  0  0  0
    1.6460    4.0520   48.4570 C   0  0  0  0  0  0  0  0  0  0  0  0
    2.7000    1.8790   49.7000 C   0  0  0  0  0  0  0  0  0  0  0  0
    0.9400    2.6530   48.2480 C   0  0  0  0  0  0  0  0  0  0  0  0
    2.3560    4.3560   49.8240 C   0  0  0  0  0  0  0  0  0  0  0  0
    1.8920    7.0110   52.5960 C   0  0  0  0  0  0  0  0  0  0  0  0
    4.7400    9.4720   54.6940 N   0  0  0  0  0  0  0  0  0  0  0  0
    1.4590    1.5500   49.0670 N   0  0  0  0  0  0  0  0  0  0  0  0
    2.4820    6.0540   51.6450 N   0  0  0  0  0  0  0  0  0  0  0  0
    0.5380    5.7040   50.6060 O   0  0  0  0  0  0  0  0  0  0  0  0
    1.0810   -0.9260   48.6650 O   0  0  0  0  0  0  0  0  0  0  0  0
   -0.7520    0.3600   49.5370 O   0  0  0  0  0  0  0  0  0  0  0  0
    0.6440    0.1510   49.4860 S   0  0  0  0  0  0  0  0  0  0  0  0
  1  2  2  0
  1  3  1  0
  2  4  1  0
  3  5  2  0
  4 11  2  0
  5 11  1  0
  6  8  2  0
  6 10  1  0
  7  9  1  0
  7 10  2  0
  8 19  1  0
  9 19  2  0
 10 18  1  0
 11 25  1  0
 12 17  1  0
 12 21  1  0
 12 22  2  0
 13 15  1  0
 13 17  1  0
 14 16  1  0
 14 17  1  0
 15 20  1  0
 16 20  1  0
 18 21  1  0
 20 25  1  0
 23 25  2  0
 24 25  2  0
M  END
>  <washed_aromatic_smiles>  (733) 
c1ccc(cc1)S(=O)(=O)N2CCC(CC2)C(=O)NCc3ccncc3

>  <name>  (733) 
neg27784

$$$$
neg2893
     RDKit          3D

 28 30  0  0  0  0  0  0  0  0999 V2000
    5.2410   12.0740   58.1890 C   0  0  0  0  0  0  0  0  0  0  0  0
    5.7890   12.8010   57.1430 C   0  0  0  0  0  0  0  0  0  0  0  0
    4.5140   10.9220   57.9220 C   0  0  0  0  0  0  0  0  0  0  0  0
    3.0040    1.2130   50.5310 C   0  0  0  0  0  0  0  0  0  0  0  0
    0.8460    1.6340   51.4230 C   0  0  0  0  0  0  0  0  0  0  0  0
    5.6590   12.3450   55.8350 C   0  0  0  0  0  0  0  0  0  0  0  0
    4.3590   10.4810   56.6120 C   0  0  0  0  0  0  0  0  0  0  0  0
    3.2990    0.3680   51.5890 C   0  0  0  0  0  0  0  0  0  0  0  0
    1.1160    0.7710   52.4660 C   0  0  0  0  0  0  0  0  0  0  0  0
    1.8640    2.0160   50.5450 C   0  0  0  0  0  0  0  0  0  0  0  0
    4.9640   11.1670   55.5540 C   0  0  0  0  0  0  0  0  0  0  0  0
    2.3800    0.2350   52.6220 C   0  0  0  0  0  0  0  0  0  0  0  0
    1.8250    3.2400   49.7390 C   0  0  0  0  0  0  0  0  0  0  0  0
    2.8310    5.6680   52.2210 C   0  0  0  0  0  0  0  0  0  0  0  0
    1.9370    8.0000   52.6440 C   0  0  0  0  0  0  0  0  0  0  0  0
    3.1880    6.9660   54.3140 C   0  0  0  0  0  0  0  0  0  0  0  0
    2.9470    9.1670   52.5900 C   0  0  0  0  0  0  0  0  0  0  0  0
    4.2800    8.0420   54.3000 C   0  0  0  0  0  0  0  0  0  0  0  0
    1.4080    4.6020   50.3220 C   0  0  0  0  0  0  0  0  0  0  0  0
    2.5340    5.5980   50.7200 C   0  0  0  0  0  0  0  0  0  0  0  0
    2.5920    6.7620   52.9970 N   0  0  0  0  0  0  0  0  0  0  0  0
    3.8030    9.3410   53.7950 N   0  0  0  0  0  0  0  0  0  0  0  0
    2.2090    3.2190   48.5910 O   0  0  0  0  0  0  0  0  0  0  0  0
    3.2950    4.6490   52.6960 O   0  0  0  0  0  0  0  0  0  0  0  0
    4.3630   11.7240   53.0850 O   0  0  0  0  0  0  0  0  0  0  0  0
    6.1770   10.1720   53.4600 O   0  0  0  0  0  0  0  0  0  0  0  0
    4.8790   10.6280   53.8350 S   0  0  0  0  0  0  0  0  0  0  0  0
    2.8030   -0.5600   54.2740 Br  0  0  0  0  0  0  0  0  0  0  0  0
  1  2  2  0
  1  3  1  0
  2  6  1  0
  3  7  2  0
  4  8  2  0
  4 10  1  0
  5  9  1  0
  5 10  2  0
  6 11  2  0
  7 11  1  0
  8 12  1  0
  9 12  2  0
 10 13  1  0
 11 27  1  0
 12 28  1  0
 13 19  1  0
 13 23  2  0
 14 20  1  0
 14 21  1  0
 14 24  2  0
 15 17  1  0
 15 21  1  0
 16 18  1  0
 16 21  1  0
 17 22  1  0
 18 22  1  0
 19 20  1  0
 22 27  1  0
 25 27  2  0
 26 27  2  0
M  END
>  <washed_aromatic_smiles>  (734) 
c1ccc(cc1)S(=O)(=O)N2CCN(CC2)C(=O)CCC(=O)c3ccc(cc3)Br

>  <name>  (734) 
neg2893

$$$$
neg239221
     RDKit          3D

 28 30  0  0  0  0  0  0  0  0999 V2000
    5.5180   12.4200   58.5400 C   0  0  0  0  0  0  0  0  0  0  0  0
    5.9500   13.2430   57.5090 C   0  0  0  0  0  0  0  0  0  0  0  0
    4.8870   11.2210   58.2420 C   0  0  0  0  0  0  0  0  0  0  0  0
    5.8010   12.8380   56.1850 C   0  0  0  0  0  0  0  0  0  0  0  0
    4.7170   10.8320   56.9190 C   0  0  0  0  0  0  0  0  0  0  0  0
    5.2110   11.6180   55.8700 C   0  0  0  0  0  0  0  0  0  0  0  0
    1.9600    6.0090   52.0040 C   0  0  0  0  0  0  0  0  0  0  0  0
    1.9090    4.3720   50.2370 C   0  0  0  0  0  0  0  0  0  0  0  0
    0.7720   -0.6390   48.6790 C   0  0  0  0  0  0  0  0  0  0  0  0
    0.5180    0.6510   47.8980 C   0  0  0  0  0  0  0  0  0  0  0  0
    1.1510   -0.4840   50.1600 C   0  0  0  0  0  0  0  0  0  0  0  0
    1.0930    1.9500   48.4830 C   0  0  0  0  0  0  0  0  0  0  0  0
    2.0710    0.6840   50.5040 C   0  0  0  0  0  0  0  0  0  0  0  0
    1.9490    8.7410   53.4630 C   0  0  0  0  0  0  0  0  0  0  0  0
    3.3900    7.7040   55.0840 C   0  0  0  0  0  0  0  0  0  0  0  0
    3.1310    9.6280   53.0180 C   0  0  0  0  0  0  0  0  0  0  0  0
    4.5740    8.5510   54.5990 C   0  0  0  0  0  0  0  0  0  0  0  0
    1.4550    1.9700   49.9780 C   0  0  0  0  0  0  0  0  0  0  0  0
    2.9300    6.6050   52.9890 C   0  0  0  0  0  0  0  0  0  0  0  0
    2.3760    7.4570   54.0420 N   0  0  0  0  0  0  0  0  0  0  0  0
    4.0940    9.8330   54.1000 N   0  0  0  0  0  0  0  0  0  0  0  0
    2.5810    5.1610   51.1280 N   0  0  0  0  0  0  0  0  0  0  0  0
    2.3360    3.0800   50.2910 N   0  0  0  0  0  0  0  0  0  0  0  0
    0.7540    6.1780   52.0020 O   0  0  0  0  0  0  0  0  0  0  0  0
    0.9970    4.7870   49.5330 O   0  0  0  0  0  0  0  0  0  0  0  0
    4.5040   12.2460   53.4270 O   0  0  0  0  0  0  0  0  0  0  0  0
    6.3880   10.7540   53.6760 O   0  0  0  0  0  0  0  0  0  0  0  0
    5.0980   11.1530   54.1250 S   0  0  0  0  0  0  0  0  0  0  0  0
  1  2  2  0
  1  3  1  0
  2  4  1  0
  3  5  2  0
  4  6  2  0
  5  6  1  0
  6 28  1  0
  7 19  1  0
  7 22  1  0
  7 24  2  0
  8 22  1  0
  8 23  1  0
  8 25  2  0
  9 10  1  0
  9 11  1  0
 10 12  1  0
 11 13  1  0
 12 18  1  0
 13 18  1  0
 14 16  1  0
 14 20  1  0
 15 17  1  0
 15 20  1  0
 16 21  1  0
 17 21  1  0
 18 23  1  0
 19 20  1  0
 21 28  1  0
 26 28  2  0
 27 28  2  0
M  END
>  <washed_aromatic_smiles>  (735) 
c1ccc(cc1)S(=O)(=O)N2CCN(CC2)CC(=O)NC(=O)NC3CCCCC3

>  <name>  (735) 
neg239221

$$$$
neg124671
     RDKit          3D

 26 28  0  0  0  0  0  0  0  0999 V2000
    5.5570   13.1210   56.8780 C   0  0  0  0  0  0  0  0  0  0  0  0
    5.2480   13.2330   55.5230 C   0  0  0  0  0  0  0  0  0  0  0  0
    5.4430   11.8920   57.5240 C   0  0  0  0  0  0  0  0  0  0  0  0
    1.6170    3.5100   48.6910 C   0  0  0  0  0  0  0  0  0  0  0  0
    4.8050   12.1260   54.8150 C   0  0  0  0  0  0  0  0  0  0  0  0
    5.0080   10.7730   56.8240 C   0  0  0  0  0  0  0  0  0  0  0  0
    1.1420    4.7280   49.1640 C   0  0  0  0  0  0  0  0  0  0  0  0
    2.3210    2.6670   49.5420 C   0  0  0  0  0  0  0  0  0  0  0  0
    4.6410   10.9120   55.4830 C   0  0  0  0  0  0  0  0  0  0  0  0
    2.3560    4.4230   51.2050 C   0  0  0  0  0  0  0  0  0  0  0  0
    1.4090    5.1280   50.4750 C   0  0  0  0  0  0  0  0  0  0  0  0
    2.6440    3.0990   50.8290 C   0  0  0  0  0  0  0  0  0  0  0  0
    3.0170    8.6180   53.2220 C   0  0  0  0  0  0  0  0  0  0  0  0
    2.1080    8.7070   54.2290 C   0  0  0  0  0  0  0  0  0  0  0  0
    4.1580    9.4150   53.5080 C   0  0  0  0  0  0  0  0  0  0  0  0
    3.1750    6.2660   52.8730 C   0  0  0  0  0  0  0  0  0  0  0  0
    0.7190    8.1110   54.2760 C   0  0  0  0  0  0  0  0  0  0  0  0
    2.2890    9.4380   56.6690 C   0  0  0  0  0  0  0  0  0  0  0  0
    3.9760    9.8530   54.8010 N   0  0  0  0  0  0  0  0  0  0  0  0
    2.7080    9.3390   55.2740 N   0  0  0  0  0  0  0  0  0  0  0  0
    3.0280    4.9940   52.3240 N   0  0  0  0  0  0  0  0  0  0  0  0
    2.9420    7.5040   52.2900 N   0  0  0  0  0  0  0  0  0  0  0  0
    5.1620    9.7490   52.8340 O   0  0  0  0  0  0  0  0  0  0  0  0
    3.5420    6.2790   54.0350 O   0  0  0  0  0  0  0  0  0  0  0  0
    0.4360    6.3080   51.2810 Cl  0  0  0  0  0  0  0  0  0  0  0  0
    3.2960    1.9390   51.9470 Cl  0  0  0  0  0  0  0  0  0  0  0  0
  1  2  2  0
  1  3  1  0
  2  5  1  0
  3  6  2  0
  4  7  2  0
  4  8  1  0
  5  9  2  0
  6  9  1  0
  7 11  1  0
  8 12  2  0
  9 19  1  0
 10 11  2  0
 10 12  1  0
 10 21  1  0
 11 25  1  0
 12 26  1  0
 13 14  2  0
 13 15  1  0
 13 22  1  0
 14 17  1  0
 14 20  1  0
 15 19  1  0
 15 23  2  0
 16 21  1  0
 16 22  1  0
 16 24  2  0
 18 20  1  0
 19 20  1  0
M  END
>  <washed_aromatic_smiles>  (736) 
Cc1c(c(=O)n(n1C)c2ccccc2)NC(=O)Nc3c(cccc3Cl)Cl

>  <name>  (736) 
neg124671

$$$$
neg283454
     RDKit          3D

 28 30  0  0  0  0  0  0  0  0999 V2000
    5.5360   13.0680   56.9400 C   0  0  0  0  0  0  0  0  0  0  0  0
    5.2370   13.1940   55.5840 C   0  0  0  0  0  0  0  0  0  0  0  0
    5.4210   11.8300   57.5700 C   0  0  0  0  0  0  0  0  0  0  0  0
    4.8120   12.0920   54.8580 C   0  0  0  0  0  0  0  0  0  0  0  0
    5.0030   10.7150   56.8520 C   0  0  0  0  0  0  0  0  0  0  0  0
    2.5900    5.6570   50.8100 C   0  0  0  0  0  0  0  0  0  0  0  0
    4.6560   10.8650   55.5060 C   0  0  0  0  0  0  0  0  0  0  0  0
    3.2580    5.4870   49.5860 C   0  0  0  0  0  0  0  0  0  0  0  0
    1.6060    4.7150   51.0910 C   0  0  0  0  0  0  0  0  0  0  0  0
    3.1500    4.3010   48.8570 C   0  0  0  0  0  0  0  0  0  0  0  0
    1.6050    3.4630   50.4760 C   0  0  0  0  0  0  0  0  0  0  0  0
    2.3490    3.2720   49.3300 C   0  0  0  0  0  0  0  0  0  0  0  0
    3.1090    8.6330   53.1400 C   0  0  0  0  0  0  0  0  0  0  0  0
    2.2280    8.5770   54.1700 C   0  0  0  0  0  0  0  0  0  0  0  0
    4.2340    9.4270   53.4780 C   0  0  0  0  0  0  0  0  0  0  0  0
    3.0080    6.5090   51.9180 C   0  0  0  0  0  0  0  0  0  0  0  0
    0.8470    7.9600   54.1600 C   0  0  0  0  0  0  0  0  0  0  0  0
    2.3010    9.3390   56.6120 C   0  0  0  0  0  0  0  0  0  0  0  0
    4.0360    9.7980   54.7910 N   0  0  0  0  0  0  0  0  0  0  0  0
    2.7900    9.2030   55.2410 N   0  0  0  0  0  0  0  0  0  0  0  0
    2.9000    7.8790   51.9250 N   0  0  0  0  0  0  0  0  0  0  0  0
    5.2230    9.8260   52.8140 O   0  0  0  0  0  0  0  0  0  0  0  0
    3.4610    5.9900   52.9380 O   0  0  0  0  0  0  0  0  0  0  0  0
    3.9980    6.4600   49.0980 F   0  0  0  0  0  0  0  0  0  0  0  0
    0.6320    5.1130   51.9200 F   0  0  0  0  0  0  0  0  0  0  0  0
    3.8420    4.1130   47.7290 F   0  0  0  0  0  0  0  0  0  0  0  0
    0.9530    2.3970   50.9820 F   0  0  0  0  0  0  0  0  0  0  0  0
    2.2670    2.0970   48.7000 F   0  0  0  0  0  0  0  0  0  0  0  0
  1  2  2  0
  1  3  1  0
  2  4  1  0
  3  5  2  0
  4  7  2  0
  5  7  1  0
  6  8  2  0
  6  9  1  0
  6 16  1  0
  7 19  1  0
  8 10  1  0
  8 24  1  0
  9 11  2  0
  9 25  1  0
 10 12  2  0
 10 26  1  0
 11 12  1  0
 11 27  1  0
 12 28  1  0
 13 14  2  0
 13 15  1  0
 13 21  1  0
 14 17  1  0
 14 20  1  0
 15 19  1  0
 15 22  2  0
 16 21  1  0
 16 23  2  0
 18 20  1  0
 19 20  1  0
M  END
>  <washed_aromatic_smiles>  (737) 
Cc1c(c(=O)n(n1C)c2ccccc2)NC(=O)c3c(c(c(c(c3F)F)F)F)F

>  <name>  (737) 
neg283454

$$$$
neg73113
     RDKit          3D

 29 31  0  0  0  0  0  0  0  0999 V2000
    2.4840    5.1380   49.0430 C   0  0  0  0  0  0  0  0  0  0  0  0
    2.1910    4.2570   51.2540 C   0  0  0  0  0  0  0  0  0  0  0  0
    2.0380    3.9410   48.4940 C   0  0  0  0  0  0  0  0  0  0  0  0
    1.7700    3.0400   50.7180 C   0  0  0  0  0  0  0  0  0  0  0  0
    4.8120    9.3980   55.2440 C   0  0  0  0  0  0  0  0  0  0  0  0
    2.5260    5.3240   50.4280 C   0  0  0  0  0  0  0  0  0  0  0  0
    1.6760    2.8950   49.3350 C   0  0  0  0  0  0  0  0  0  0  0  0
    3.9650    8.6220   54.4450 C   0  0  0  0  0  0  0  0  0  0  0  0
    5.1850    8.6750   56.3620 C   0  0  0  0  0  0  0  0  0  0  0  0
    3.8970    7.4820   55.1140 C   0  0  0  0  0  0  0  0  0  0  0  0
    5.0930   10.7520   54.9490 C   0  0  0  0  0  0  0  0  0  0  0  0
    5.6780   13.6340   57.1870 C   0  0  0  0  0  0  0  0  0  0  0  0
    5.2140   12.3510   57.8800 C   0  0  0  0  0  0  0  0  0  0  0  0
    5.3800   13.7040   55.6720 C   0  0  0  0  0  0  0  0  0  0  0  0
    4.1470   11.5310   57.1190 C   0  0  0  0  0  0  0  0  0  0  0  0
    4.1990   12.9510   55.1940 C   0  0  0  0  0  0  0  0  0  0  0  0
    6.0480    8.9280   57.5590 C   0  0  0  0  0  0  0  0  0  0  0  0
    3.3470    6.3560   54.4640 C   0  0  0  0  0  0  0  0  0  0  0  0
    4.8220    6.4430   57.3250 C   0  0  0  0  0  0  0  0  0  0  0  0
    0.7270    0.5790   49.4740 C   0  0  0  0  0  0  0  0  0  0  0  0
    3.1490    6.5740   51.0300 C   0  0  0  0  0  0  0  0  0  0  0  0
    4.5860    7.5010   56.2980 N   0  0  0  0  0  0  0  0  0  0  0  0
    4.3480   11.6280   55.6770 N   0  0  0  0  0  0  0  0  0  0  0  0
    2.5000    7.4500   52.0540 N   0  0  0  0  0  0  0  0  0  0  0  0
    5.8390   11.1220   54.0400 O   0  0  0  0  0  0  0  0  0  0  0  0
    2.0450    9.7090   53.0300 O   0  0  0  0  0  0  0  0  0  0  0  0
    4.1980    9.4210   52.0120 O   0  0  0  0  0  0  0  0  0  0  0  0
    1.2340    1.7250   48.7480 O   0  0  0  0  0  0  0  0  0  0  0  0
    3.1610    8.8830   52.7990 S   0  0  0  0  0  0  0  0  0  0  0  0
  1  3  2  0
  1  6  1  0
  2  4  1  0
  2  6  2  0
  3  7  1  0
  4  7  2  0
  5  8  1  0
  5  9  2  0
  5 11  1  0
  6 21  1  0
  7 28  1  0
  8 10  2  0
  8 29  1  0
  9 17  1  0
  9 22  1  0
 10 18  1  0
 10 22  1  0
 11 23  1  0
 11 25  2  0
 12 13  1  0
 12 14  1  0
 13 15  1  0
 14 16  1  0
 15 23  1  0
 16 23  1  0
 19 22  1  0
 20 28  1  0
 21 24  1  0
 24 29  1  0
 26 29  2  0
 27 29  2  0
M  END
>  <washed_aromatic_smiles>  (738) 
Cc1c(c(c(n1C)C)S(=O)(=O)NCc2ccc(cc2)OC)C(=O)N3CCCCC3

>  <name>  (738) 
neg73113

$$$$
neg72424
     RDKit          3D

 29 31  0  0  0  0  0  0  0  0999 V2000
    1.3300    5.3090   50.4000 C   0  0  0  0  0  0  0  0  0  0  0  0
    2.6120    3.5240   51.3920 C   0  0  0  0  0  0  0  0  0  0  0  0
    1.3660    4.6720   49.1830 C   0  0  0  0  0  0  0  0  0  0  0  0
    2.6020    2.8580   50.1820 C   0  0  0  0  0  0  0  0  0  0  0  0
    4.2190    7.9670   54.6040 C   0  0  0  0  0  0  0  0  0  0  0  0
    2.1570    4.8670   51.4650 C   0  0  0  0  0  0  0  0  0  0  0  0
    2.1140    3.5170   49.0570 C   0  0  0  0  0  0  0  0  0  0  0  0
    2.9120    7.7800   54.0680 C   0  0  0  0  0  0  0  0  0  0  0  0
    4.0830    8.1990   55.9470 C   0  0  0  0  0  0  0  0  0  0  0  0
    2.0540    8.2320   55.0180 C   0  0  0  0  0  0  0  0  0  0  0  0
    5.3850    8.5170   53.9280 C   0  0  0  0  0  0  0  0  0  0  0  0
    4.6320   12.6430   55.3570 C   0  0  0  0  0  0  0  0  0  0  0  0
    5.8910   12.8960   54.5820 C   0  0  0  0  0  0  0  0  0  0  0  0
    4.4470   11.1530   55.3650 C   0  0  0  0  0  0  0  0  0  0  0  0
    6.1190   12.2020   53.2180 C   0  0  0  0  0  0  0  0  0  0  0  0
    4.1490   10.5870   53.9490 C   0  0  0  0  0  0  0  0  0  0  0  0
    6.3310   10.6690   53.0480 C   0  0  0  0  0  0  0  0  0  0  0  0
    5.1340    8.3080   57.0400 C   0  0  0  0  0  0  0  0  0  0  0  0
    0.5520    8.3830   54.9500 C   0  0  0  0  0  0  0  0  0  0  0  0
    2.2410    9.2120   57.2610 C   0  0  0  0  0  0  0  0  0  0  0  0
    3.8710    3.7560   47.6210 C   0  0  0  0  0  0  0  0  0  0  0  0
    2.7810    8.5090   56.1370 N   0  0  0  0  0  0  0  0  0  0  0  0
    5.2370    9.8150   53.4530 N   0  0  0  0  0  0  0  0  0  0  0  0
    2.5860    5.6730   52.4390 N   0  0  0  0  0  0  0  0  0  0  0  0
    6.5050    8.0170   53.9030 O   0  0  0  0  0  0  0  0  0  0  0  0
    3.1380    7.9060   51.4820 O   0  0  0  0  0  0  0  0  0  0  0  0
    0.9160    7.5160   52.3740 O   0  0  0  0  0  0  0  0  0  0  0  0
    2.5380    3.1920   47.8090 O   0  0  0  0  0  0  0  0  0  0  0  0
    2.3270    7.2620   52.4570 S   0  0  2  0  0  0  0  0  0  0  0  0
  1  3  2  0
  1  6  1  0
  2  4  1  0
  2  6  2  0
  3  7  1  0
  4  7  2  0
  5  8  1  0
  5  9  2  0
  5 11  1  0
  6 24  1  0
  7 28  1  0
  8 10  2  0
  8 29  1  0
  9 18  1  0
  9 22  1  0
 10 19  1  0
 10 22  1  0
 11 23  1  0
 11 25  2  0
 12 13  1  0
 12 14  1  0
 13 15  1  0
 14 16  1  0
 15 17  1  0
 16 23  1  0
 17 23  1  0
 20 22  1  0
 21 28  1  0
 24 29  2  0
 26 29  2  0
 29 27  1  6
M  CHG  1  27  -1
M  END
>  <washed_aromatic_smiles>  (739) 
Cc1c(c(c(n1C)C)S(=O)(=O)Nc2ccc(cc2)OC)C(=O)N3CCCCCC3

>  <name>  (739) 
neg72424

$$$$
neg73050
     RDKit          3D

 25 27  0  0  0  0  0  0  0  0999 V2000
    0.5310    1.4820   45.5420 C   0  0  0  0  0  0  0  0  0  0  0  0
    1.1850    0.2780   45.5790 C   0  0  0  0  0  0  0  0  0  0  0  0
    0.1270    2.0930   46.7180 C   0  0  0  0  0  0  0  0  0  0  0  0
    1.3750   -0.3680   46.7720 C   0  0  0  0  0  0  0  0  0  0  0  0
    0.3220    1.4870   47.9280 C   0  0  0  0  0  0  0  0  0  0  0  0
    2.4960    2.1730   51.1920 C   0  0  0  0  0  0  0  0  0  0  0  0
    0.9640    0.2440   47.9740 C   0  0  0  0  0  0  0  0  0  0  0  0
    2.1900    0.8340   51.4720 C   0  0  0  0  0  0  0  0  0  0  0  0
    2.8800    2.7210   52.3890 C   0  0  0  0  0  0  0  0  0  0  0  0
    2.4650    0.5850   52.7900 C   0  0  0  0  0  0  0  0  0  0  0  0
    2.4530    2.8400   49.8840 C   0  0  0  0  0  0  0  0  0  0  0  0
    2.1680    6.2800   50.7550 C   0  0  0  0  0  0  0  0  0  0  0  0
    3.2750    6.1910   49.6700 C   0  0  0  0  0  0  0  0  0  0  0  0
    1.2500    5.0770   50.4180 C   0  0  0  0  0  0  0  0  0  0  0  0
    2.8290    5.0220   48.7870 C   0  0  0  0  0  0  0  0  0  0  0  0
    3.0730    4.1850   52.5750 C   0  0  0  0  0  0  0  0  0  0  0  0
    2.2590   -0.6860   53.6120 C   0  0  0  0  0  0  0  0  0  0  0  0
    2.8270    1.8190   54.8430 C   0  0  0  0  0  0  0  0  0  0  0  0
    2.8260    1.7470   53.3660 N   0  0  0  0  0  0  0  0  0  0  0  0
    2.0160    4.1420   49.6140 N   0  0  0  0  0  0  0  0  0  0  0  0
    1.2660   -0.3250   49.0930 N   0  0  0  0  0  0  0  0  0  0  0  0
    2.9010    2.2740   48.9060 O   0  0  0  0  0  0  0  0  0  0  0  0
   -0.0940   -0.1390   51.1070 O   0  0  0  0  0  0  0  0  0  0  0  0
    1.9030   -1.6180   50.9930 O   0  0  0  0  0  0  0  0  0  0  0  0
    1.2470   -0.3920   50.6600 S   0  0  2  0  0  0  0  0  0  0  0  0
  1  2  2  0
  1  3  1  0
  2  4  1  0
  3  5  2  0
  4  7  2  0
  5  7  1  0
  6  8  1  0
  6  9  2  0
  6 11  1  0
  7 21  1  0
  8 10  2  0
  8 25  1  0
  9 16  1  0
  9 19  1  0
 10 17  1  0
 10 19  1  0
 11 20  1  0
 11 22  2  0
 12 13  1  0
 12 14  1  0
 13 15  1  0
 14 20  1  0
 15 20  1  0
 18 19  1  0
 21 25  2  0
 23 25  2  0
 25 24  1  6
M  CHG  1  24  -1
M  END
>  <washed_aromatic_smiles>  (740) 
Cc1c(c(c(n1C)C)S(=O)(=O)Nc2ccccc2)C(=O)N3CCCC3

>  <name>  (740) 
neg73050

$$$$
neg299503
     RDKit          3D

 27 30  0  0  0  0  0  0  0  0999 V2000
    2.9140   -0.5640   53.4120 C   0  0  0  0  0  0  0  0  0  0  0  0
    2.3100   -0.9060   52.2100 C   0  0  0  0  0  0  0  0  0  0  0  0
    3.1240    0.7710   53.7230 C   0  0  0  0  0  0  0  0  0  0  0  0
    5.4320   12.5400   57.3760 C   0  0  0  0  0  0  0  0  0  0  0  0
    1.8340    0.0880   51.3630 C   0  0  0  0  0  0  0  0  0  0  0  0
    2.7070    1.7640   52.8460 C   0  0  0  0  0  0  0  0  0  0  0  0
    5.2370   12.2110   56.0350 C   0  0  0  0  0  0  0  0  0  0  0  0
    3.9180    8.8410   54.7990 C   0  0  0  0  0  0  0  0  0  0  0  0
    5.0840   11.4550   58.1060 C   0  0  0  0  0  0  0  0  0  0  0  0
    1.9960    1.4320   51.6960 C   0  0  0  0  0  0  0  0  0  0  0  0
    2.3870    5.9190   51.0460 C   0  0  0  0  0  0  0  0  0  0  0  0
    4.7730   10.9300   55.9950 C   0  0  0  0  0  0  0  0  0  0  0  0
    4.3810   10.1040   54.8740 C   0  0  0  0  0  0  0  0  0  0  0  0
    3.6670    8.5930   53.4520 C   0  0  0  0  0  0  0  0  0  0  0  0
    3.0740    5.2720   50.0430 C   0  0  0  0  0  0  0  0  0  0  0  0
    1.3980    5.1090   51.4540 C   0  0  0  0  0  0  0  0  0  0  0  0
    3.2180    7.3210   52.9060 C   0  0  0  0  0  0  0  0  0  0  0  0
    4.0200    5.8870   49.0980 C   0  0  0  0  0  0  0  0  0  0  0  0
    0.2310    5.6830   52.2410 C   0  0  0  0  0  0  0  0  0  0  0  0
    1.2280    2.4740   50.9010 C   0  0  0  0  0  0  0  0  0  0  0  0
    3.9640    9.6530   52.7620 N   0  0  0  0  0  0  0  0  0  0  0  0
    2.7110    4.0350   49.9370 N   0  0  0  0  0  0  0  0  0  0  0  0
    1.7180    3.8800   50.8360 N   0  0  0  0  0  0  0  0  0  0  0  0
    2.6910    7.2080   51.6280 N   0  0  0  0  0  0  0  0  0  0  0  0
    3.3530    6.2920   53.5530 O   0  0  0  0  0  0  0  0  0  0  0  0
    4.6850   10.4600   57.2780 O   0  0  0  0  0  0  0  0  0  0  0  0
    4.4060   10.5720   53.6140 O   0  0  0  0  0  0  0  0  0  0  0  0
  1  2  2  0
  1  3  1  0
  2  5  1  0
  3  6  2  0
  4  7  1  0
  4  9  2  0
  5 10  2  0
  6 10  1  0
  7 12  2  0
  8 13  2  0
  8 14  1  0
  9 26  1  0
 10 20  1  0
 11 15  1  0
 11 16  2  0
 11 24  1  0
 12 13  1  0
 12 26  1  0
 13 27  1  0
 14 17  1  0
 14 21  2  0
 15 18  1  0
 15 22  2  0
 16 19  1  0
 16 23  1  0
 17 24  1  0
 17 25  2  0
 20 23  1  0
 21 27  1  0
 22 23  1  0
M  END
>  <washed_aromatic_smiles>  (741) 
Cc1c(c(n(n1)Cc2ccccc2)C)NC(=O)c3cc(on3)c4ccco4

>  <name>  (741) 
neg299503

$$$$
neg164548
     RDKit          3D

 25 27  0  0  0  0  0  0  0  0999 V2000
    5.2260    9.2660   57.6110 C   0  0  0  0  0  0  0  0  0  0  0  0
    5.8540    8.6200   56.5550 C   0  0  0  0  0  0  0  0  0  0  0  0
    3.8680    9.5320   57.5430 C   0  0  0  0  0  0  0  0  0  0  0  0
    1.1440    3.2110   48.2450 C   0  0  0  0  0  0  0  0  0  0  0  0
    1.8460    1.8760   50.1240 C   0  0  0  0  0  0  0  0  0  0  0  0
    5.1440    8.2610   55.4120 C   0  0  0  0  0  0  0  0  0  0  0  0
    3.1220    9.0920   56.4600 C   0  0  0  0  0  0  0  0  0  0  0  0
    1.2580    4.3580   49.0080 C   0  0  0  0  0  0  0  0  0  0  0  0
    1.9870    3.0270   50.8870 C   0  0  0  0  0  0  0  0  0  0  0  0
    1.3440    1.9430   48.8110 C   0  0  0  0  0  0  0  0  0  0  0  0
    2.1210    7.3730   52.3520 C   0  0  0  0  0  0  0  0  0  0  0  0
    3.7680    8.4590   55.3890 C   0  0  0  0  0  0  0  0  0  0  0  0
    1.5820    4.2560   50.3590 C   0  0  0  0  0  0  0  0  0  0  0  0
    1.3620    8.4110   52.9080 C   0  0  0  0  0  0  0  0  0  0  0  0
    3.0850    7.1400   53.2610 C   0  0  0  0  0  0  0  0  0  0  0  0
    0.9970    0.7350   48.0750 C   0  0  0  0  0  0  0  0  0  0  0  0
    2.1260    6.5290   51.1720 C   0  0  0  0  0  0  0  0  0  0  0  0
    0.0570    8.9710   52.4930 C   0  0  0  0  0  0  0  0  0  0  0  0
    0.6400    0.7710   46.6030 C   0  0  0  0  0  0  0  0  0  0  0  0
    1.8730    8.8540   53.9990 N   0  0  0  0  0  0  0  0  0  0  0  0
    2.9820    8.1030   54.2330 N   0  0  0  0  0  0  0  0  0  0  0  0
    1.3870    5.3620   51.2200 N   0  0  0  0  0  0  0  0  0  0  0  0
    0.9250   -0.3410   48.6300 O   0  0  0  0  0  0  0  0  0  0  0  0
    2.9550    6.6330   50.2660 O   0  0  0  0  0  0  0  0  0  0  0  0
    4.0180    5.7320   53.1090 Cl  0  0  0  0  0  0  0  0  0  0  0  0
  1  2  2  0
  1  3  1  0
  2  6  1  0
  3  7  2  0
  4  8  2  0
  4 10  1  0
  5  9  1  0
  5 10  2  0
  6 12  2  0
  7 12  1  0
  8 13  1  0
  9 13  2  0
 10 16  1  0
 11 14  1  0
 11 15  2  0
 11 17  1  0
 12 21  1  0
 13 22  1  0
 14 18  1  0
 14 20  2  0
 15 21  1  0
 15 25  1  0
 16 19  1  0
 16 23  2  0
 17 22  1  0
 17 24  2  0
 20 21  1  0
M  END
>  <washed_aromatic_smiles>  (742) 
Cc1c(c(n(n1)c2ccccc2)Cl)C(=O)Nc3ccc(cc3)C(=O)C

>  <name>  (742) 
neg164548

$$$$
neg41748
     RDKit          3D

 36 40  0  0  0  0  0  0  0  0999 V2000
    5.8210   12.6250   53.4450 C   0  0  0  0  0  0  0  0  0  0  0  0
   -0.1740   -0.0620   49.3040 C   0  0  0  0  0  0  0  0  0  0  0  0
    5.9600   11.4030   52.7950 C   0  0  0  0  0  0  0  0  0  0  0  0
    5.3210   12.6760   54.7350 C   0  0  0  0  0  0  0  0  0  0  0  0
   -0.7110    0.5420   50.4330 C   0  0  0  0  0  0  0  0  0  0  0  0
    1.0740   -0.6610   49.3840 C   0  0  0  0  0  0  0  0  0  0  0  0
    3.1220    5.6520   48.9260 C   0  0  0  0  0  0  0  0  0  0  0  0
    2.7430    4.3200   48.9090 C   0  0  0  0  0  0  0  0  0  0  0  0
    5.4570   10.2510   53.3810 C   0  0  0  0  0  0  0  0  0  0  0  0
    4.8320   11.5230   55.3220 C   0  0  0  0  0  0  0  0  0  0  0  0
    0.0120    0.6100   51.6030 C   0  0  0  0  0  0  0  0  0  0  0  0
    1.8030   -0.6150   50.5720 C   0  0  0  0  0  0  0  0  0  0  0  0
    3.2300    6.3450   50.1270 C   0  0  0  0  0  0  0  0  0  0  0  0
    2.5580    3.6490   50.1060 C   0  0  0  0  0  0  0  0  0  0  0  0
    4.7720   10.3200   54.5940 C   0  0  0  0  0  0  0  0  0  0  0  0
    1.2690    0.0250   51.6960 C   0  0  0  0  0  0  0  0  0  0  0  0
    3.0220    8.4470   54.1910 C   0  0  0  0  0  0  0  0  0  0  0  0
    2.7010    1.1550   53.4470 C   0  0  0  0  0  0  0  0  0  0  0  0
    3.0320    5.7040   51.3580 C   0  0  0  0  0  0  0  0  0  0  0  0
    2.8030    4.2960   51.3250 C   0  0  0  0  0  0  0  0  0  0  0  0
    3.8010    9.3080   54.9990 C   0  0  0  0  0  0  0  0  0  0  0  0
    1.9310    0.0950   52.9800 C   0  0  0  0  0  0  0  0  0  0  0  0
    1.8730    8.3510   54.8690 C   0  0  0  0  0  0  0  0  0  0  0  0
    2.8540    0.9150   54.7740 C   0  0  0  0  0  0  0  0  0  0  0  0
    3.1570    7.8950   52.8480 C   0  0  0  0  0  0  0  0  0  0  0  0
    3.2360    2.0940   52.4850 C   0  0  0  0  0  0  0  0  0  0  0  0
    0.5250    7.9200   54.3900 C   0  0  0  0  0  0  0  0  0  0  0  0
    3.4240    1.6210   55.9850 C   0  0  0  0  0  0  0  0  0  0  0  0
    3.2390    9.4150   56.1650 N   0  0  0  0  0  0  0  0  0  0  0  0
    1.7520   -0.7590   53.9190 N   0  0  0  0  0  0  0  0  0  0  0  0
    3.0630    6.4780   52.6280 N   0  0  0  0  0  0  0  0  0  0  0  0
    2.9020    3.4530   52.4860 N   0  0  0  0  0  0  0  0  0  0  0  0
    3.2780    8.6570   51.9130 O   0  0  0  0  0  0  0  0  0  0  0  0
    3.9370    1.6580   51.5860 O   0  0  0  0  0  0  0  0  0  0  0  0
    2.0430    8.8660   56.0740 O   0  0  0  0  0  0  0  0  0  0  0  0
    2.3460   -0.2820   55.0020 O   0  0  0  0  0  0  0  0  0  0  0  0
  1  3  2  0
  1  4  1  0
  2  5  2  0
  2  6  1  0
  3  9  1  0
  4 10  2  0
  5 11  1  0
  6 12  2  0
  7  8  2  0
  7 13  1  0
  8 14  1  0
  9 15  2  0
 10 15  1  0
 11 16  2  0
 12 16  1  0
 13 19  2  0
 14 20  2  0
 15 21  1  0
 16 22  1  0
 17 21  1  0
 17 23  2  0
 17 25  1  0
 18 22  1  0
 18 24  2  0
 18 26  1  0
 19 20  1  0
 19 31  1  0
 20 32  1  0
 21 29  2  0
 22 30  2  0
 23 27  1  0
 23 35  1  0
 24 28  1  0
 24 36  1  0
 25 31  1  0
 25 33  2  0
 26 32  1  0
 26 34  2  0
 29 35  1  0
 30 36  1  0
M  END
>  <washed_aromatic_smiles>  (743) 
Cc1c(c(no1)c2ccccc2)C(=O)Nc3ccccc3NC(=O)c4c(onc4c5ccccc5)C

>  <name>  (743) 
neg41748

$$$$
neg30686
     RDKit          3D

 26 28  0  0  0  0  0  0  0  0999 V2000
    2.8550    0.5990   55.0960 C   0  0  0  0  0  0  0  0  0  0  0  0
   -0.1570    6.7370   51.8480 C   0  0  0  0  0  0  0  0  0  0  0  0
    2.8870   -0.6520   54.5450 C   0  0  0  0  0  0  0  0  0  0  0  0
    0.3340    7.5640   52.8360 C   0  0  0  0  0  0  0  0  0  0  0  0
    2.8440    1.6820   54.2690 C   0  0  0  0  0  0  0  0  0  0  0  0
    0.6670    5.9270   51.0760 C   0  0  0  0  0  0  0  0  0  0  0  0
    2.9660   -0.8200   53.1750 C   0  0  0  0  0  0  0  0  0  0  0  0
    1.6650    7.4960   53.1340 C   0  0  0  0  0  0  0  0  0  0  0  0
    2.9420    1.5900   52.8660 C   0  0  0  0  0  0  0  0  0  0  0  0
    2.0010    5.8000   51.3720 C   0  0  0  0  0  0  0  0  0  0  0  0
    0.8460   -0.3650   49.9410 C   0  0  0  0  0  0  0  0  0  0  0  0
    3.0040    0.2970   52.3290 C   0  0  0  0  0  0  0  0  0  0  0  0
    2.4630    6.5800   52.4630 C   0  0  0  0  0  0  0  0  0  0  0  0
   -0.1490    0.1570   50.7370 C   0  0  0  0  0  0  0  0  0  0  0  0
    0.3560   -0.2830   48.7020 C   0  0  0  0  0  0  0  0  0  0  0  0
    2.9200    2.8740   52.1520 C   0  0  0  0  0  0  0  0  0  0  0  0
    0.0000    0.6200   52.1320 C   0  0  0  0  0  0  0  0  0  0  0  0
    1.0290   -0.2200   47.3790 C   0  0  0  0  0  0  0  0  0  0  0  0
    2.7730    4.7680   50.4960 C   0  0  0  0  0  0  0  0  0  0  0  0
    2.1460   -0.9020   50.4500 C   0  0  0  0  0  0  0  0  0  0  0  0
   -1.2120    0.3270   50.0630 N   0  0  0  0  0  0  0  0  0  0  0  0
    2.6260    3.2670   50.8660 N   0  0  0  0  0  0  0  0  0  0  0  0
    3.1450    3.8260   52.8290 O   0  0  0  0  0  0  0  0  0  0  0  0
   -0.9180    0.0120   48.7970 O   0  0  0  0  0  0  0  0  0  0  0  0
    3.0230    0.1190   50.9770 O   0  0  0  0  0  0  0  0  0  0  0  0
    3.9550    6.4330   53.2110 Cl  0  0  0  0  0  0  0  0  0  0  0  0
  1  3  2  0
  1  5  1  0
  2  4  2  0
  2  6  1  0
  3  7  1  0
  4  8  1  0
  5  9  2  0
  6 10  2  0
  7 12  2  0
  8 13  2  0
  9 12  1  0
  9 16  1  0
 10 13  1  0
 10 19  1  0
 11 14  1  0
 11 15  2  0
 11 20  1  0
 12 25  1  0
 13 26  1  0
 14 17  1  0
 14 21  2  0
 15 18  1  0
 15 24  1  0
 16 22  1  0
 16 23  2  0
 19 22  1  0
 20 25  1  0
 21 24  1  0
M  END
>  <washed_aromatic_smiles>  (744) 
Cc1c(c(on1)C)COc2ccccc2C(=O)NCc3ccccc3Cl

>  <name>  (744) 
neg30686

$$$$
neg323283
     RDKit          3D

 27 30  0  0  0  0  0  0  0  0999 V2000
   -0.7240   -0.3300   48.7890 C   0  0  0  0  0  0  0  0  0  0  0  0
    0.5350   -0.9400   48.6810 C   0  0  0  0  0  0  0  0  0  0  0  0
   -1.1490    0.1780   50.0310 C   0  0  0  0  0  0  0  0  0  0  0  0
    2.6940   -0.8090   53.6190 C   0  0  0  0  0  0  0  0  0  0  0  0
    1.3690   -1.0060   49.7810 C   0  0  0  0  0  0  0  0  0  0  0  0
   -0.2840    0.1970   51.1080 C   0  0  0  0  0  0  0  0  0  0  0  0
    3.0780   -0.5660   54.9290 C   0  0  0  0  0  0  0  0  0  0  0  0
    2.9050    1.8000   54.5980 C   0  0  0  0  0  0  0  0  0  0  0  0
    2.7140    1.5910   53.2250 C   0  0  0  0  0  0  0  0  0  0  0  0
    2.5980    2.4340   52.0840 C   0  0  0  0  0  0  0  0  0  0  0  0
    2.4760    0.3000   52.8050 C   0  0  0  0  0  0  0  0  0  0  0  0
    0.9970   -0.2970   50.8980 C   0  0  0  0  0  0  0  0  0  0  0  0
    3.1930    0.7370   55.4080 C   0  0  0  0  0  0  0  0  0  0  0  0
    2.1290    1.6720   51.0430 C   0  0  0  0  0  0  0  0  0  0  0  0
    2.7570    3.8710   52.0730 C   0  0  0  0  0  0  0  0  0  0  0  0
    3.2910    4.2950   49.9490 C   0  0  0  0  0  0  0  0  0  0  0  0
    1.8510    5.8980   51.2180 C   0  0  0  0  0  0  0  0  0  0  0  0
    3.2200    5.1080   48.7430 C   0  0  0  0  0  0  0  0  0  0  0  0
    2.9710    6.7690   50.7060 C   0  0  0  0  0  0  0  0  0  0  0  0
    1.6230    2.0020   49.5910 C   0  0  0  0  0  0  0  0  0  0  0  0
    3.6190    7.4210   48.3720 C   0  0  0  0  0  0  0  0  0  0  0  0
    4.5810    1.8970   57.1570 C   0  0  0  0  0  0  0  0  0  0  0  0
    1.9970    0.4010   51.5180 N   0  0  0  0  0  0  0  0  0  0  0  0
    2.2870    4.5150   51.0020 N   0  0  0  0  0  0  0  0  0  0  0  0
    3.1660    6.4370   49.2470 N   0  0  0  0  0  0  0  0  0  0  0  0
    3.3750    4.5610   52.8700 O   0  0  0  0  0  0  0  0  0  0  0  0
    3.6250    0.9240   56.7060 O   0  0  0  0  0  0  0  0  0  0  0  0
  1  2  2  0
  1  3  1  0
  2  5  1  0
  3  6  2  0
  4  7  2  0
  4 11  1  0
  5 12  2  0
  6 12  1  0
  7 13  1  0
  8  9  1  0
  8 13  2  0
  9 10  1  0
  9 11  2  0
 10 14  2  0
 10 15  1  0
 11 23  1  0
 12 23  1  0
 13 27  1  0
 14 20  1  0
 14 23  1  0
 15 24  1  0
 15 26  2  0
 16 18  1  0
 16 24  1  0
 17 19  1  0
 17 24  1  0
 18 25  1  0
 19 25  1  0
 21 25  1  0
 22 27  1  0
M  CHG  1  25   1
M  END
>  <washed_aromatic_smiles>  (745) 
Cc1c(c2cc(ccc2n1c3ccccc3)OC)C(=O)N4CCN(CC4)C

>  <name>  (745) 
neg323283

$$$$
neg17881
     RDKit          3D

 27 29  0  0  0  0  0  0  0  0999 V2000
    1.3510    0.2490   51.2450 C   0  0  0  0  0  0  0  0  0  0  0  0
    0.9700   -0.1070   49.9330 C   0  0  0  0  0  0  0  0  0  0  0  0
    1.8350    1.5170   51.5270 C   0  0  0  0  0  0  0  0  0  0  0  0
    1.0930    0.7990   48.8980 C   0  0  0  0  0  0  0  0  0  0  0  0
    4.2500    9.8420   56.7810 C   0  0  0  0  0  0  0  0  0  0  0  0
    5.1530   11.3570   55.1050 C   0  0  0  0  0  0  0  0  0  0  0  0
    4.6520   10.7140   57.7850 C   0  0  0  0  0  0  0  0  0  0  0  0
    5.5510   12.2310   56.1140 C   0  0  0  0  0  0  0  0  0  0  0  0
    1.9300    2.4690   50.4950 C   0  0  0  0  0  0  0  0  0  0  0  0
    2.3850    3.8180   50.4060 C   0  0  0  0  0  0  0  0  0  0  0  0
    1.6140    2.0590   49.2050 C   0  0  0  0  0  0  0  0  0  0  0  0
    4.5070   10.1630   55.4420 C   0  0  0  0  0  0  0  0  0  0  0  0
    5.3080   11.8980   57.4530 C   0  0  0  0  0  0  0  0  0  0  0  0
    2.5330    4.0850   49.0720 C   0  0  0  0  0  0  0  0  0  0  0  0
    2.6470    4.7570   51.4770 C   0  0  0  0  0  0  0  0  0  0  0  0
    3.0300    8.4600   54.3860 C   0  0  0  0  0  0  0  0  0  0  0  0
    3.3200    5.1580   48.3870 C   0  0  0  0  0  0  0  0  0  0  0  0
    0.7370    7.0360   52.7200 C   0  0  0  0  0  0  0  0  0  0  0  0
    6.2990   14.0170   58.3830 C   0  0  0  0  0  0  0  0  0  0  0  0
    2.5360    6.2680   51.2500 C   0  0  0  0  0  0  0  0  0  0  0  0
    3.0690    7.2340   53.4900 C   0  0  0  0  0  0  0  0  0  0  0  0
    1.9890    3.0710   48.3530 N   0  0  0  0  0  0  0  0  0  0  0  0
    4.1560    9.2530   54.4010 N   0  0  0  0  0  0  0  0  0  0  0  0
    2.1400    7.2110   52.3390 N   0  0  0  0  0  0  0  0  0  0  0  0
    3.0090    4.3530   52.5490 O   0  0  0  0  0  0  0  0  0  0  0  0
    2.0990    8.7000   55.1350 O   0  0  0  0  0  0  0  0  0  0  0  0
    5.7170   12.7010   58.5040 O   0  0  0  0  0  0  0  0  0  0  0  0
  1  2  2  0
  1  3  1  0
  2  4  1  0
  3  9  2  0
  4 11  2  0
  5  7  2  0
  5 12  1  0
  6  8  1  0
  6 12  2  0
  7 13  1  0
  8 13  2  0
  9 10  1  0
  9 11  1  0
 10 14  2  0
 10 15  1  0
 11 22  1  0
 12 23  1  0
 13 27  1  0
 14 17  1  0
 14 22  1  0
 15 20  1  0
 15 25  2  0
 16 21  1  0
 16 23  1  0
 16 26  2  0
 18 24  1  0
 19 27  1  0
 20 24  1  0
 21 24  1  0
M  END
>  <washed_aromatic_smiles>  (746) 
Cc1c(c2ccccc2[nH]1)C(=O)CN(C)CC(=O)Nc3ccc(cc3)OC

>  <name>  (746) 
neg17881

$$$$
neg75670
     RDKit          3D

 27 30  0  0  0  0  0  0  0  0999 V2000
    1.1350    7.1610   52.8680 C   0  0  0  0  0  0  0  0  0  0  0  0
   -0.1320    0.7500   47.6860 C   0  0  0  0  0  0  0  0  0  0  0  0
    2.4970    6.8940   52.8420 C   0  0  0  0  0  0  0  0  0  0  0  0
    0.3130    6.6140   51.8910 C   0  0  0  0  0  0  0  0  0  0  0  0
    0.3110    1.9270   47.0540 C   0  0  0  0  0  0  0  0  0  0  0  0
    0.2570    0.4280   48.9730 C   0  0  0  0  0  0  0  0  0  0  0  0
    3.0230    6.0700   51.8530 C   0  0  0  0  0  0  0  0  0  0  0  0
    0.8570    5.8230   50.8820 C   0  0  0  0  0  0  0  0  0  0  0  0
    1.1340    2.8110   47.7260 C   0  0  0  0  0  0  0  0  0  0  0  0
    1.0860    1.3130   49.6680 C   0  0  0  0  0  0  0  0  0  0  0  0
    1.6370    1.3120   50.9720 C   0  0  0  0  0  0  0  0  0  0  0  0
    2.2090    5.5240   50.8640 C   0  0  0  0  0  0  0  0  0  0  0  0
    1.5050    2.4810   49.0320 C   0  0  0  0  0  0  0  0  0  0  0  0
    2.4130    2.4240   51.0450 C   0  0  0  0  0  0  0  0  0  0  0  0
    1.3500    0.4940   52.1480 C   0  0  0  0  0  0  0  0  0  0  0  0
    2.4010   -0.1240   52.9930 C   0  0  0  0  0  0  0  0  0  0  0  0
    2.6310    1.4930   55.2060 C   0  0  0  0  0  0  0  0  0  0  0  0
    3.4110   -0.7940   55.1580 C   0  0  0  0  0  0  0  0  0  0  0  0
    3.4500    1.6210   56.5070 C   0  0  0  0  0  0  0  0  0  0  0  0
    4.4720   -0.4670   56.2450 C   0  0  0  0  0  0  0  0  0  0  0  0
    3.1590    2.7510   52.2600 C   0  0  0  0  0  0  0  0  0  0  0  0
    2.7560    4.5880   49.7920 C   0  0  0  0  0  0  0  0  0  0  0  0
    2.2950    3.1860   49.9240 N   0  0  0  0  0  0  0  0  0  0  0  0
    2.8510    0.2680   54.3340 N   0  0  0  0  0  0  0  0  0  0  0  0
    0.1890    0.2880   52.4420 O   0  0  0  0  0  0  0  0  0  0  0  0
    2.9440   -1.1110   52.5050 O   0  0  0  0  0  0  0  0  0  0  0  0
    4.6710    0.9190   56.4380 O   0  0  0  0  0  0  0  0  0  0  0  0
  1  3  2  0
  1  4  1  0
  2  5  2  0
  2  6  1  0
  3  7  1  0
  4  8  2  0
  5  9  1  0
  6 10  2  0
  7 12  2  0
  8 12  1  0
  9 13  2  0
 10 11  1  0
 10 13  1  0
 11 14  2  0
 11 15  1  0
 12 22  1  0
 13 23  1  0
 14 21  1  0
 14 23  1  0
 15 16  1  0
 15 25  2  0
 16 24  1  0
 16 26  2  0
 17 19  1  0
 17 24  1  0
 18 20  1  0
 18 24  1  0
 19 27  1  0
 20 27  1  0
 22 23  1  0
M  END
>  <washed_aromatic_smiles>  (747) 
Cc1c(c2ccccc2n1Cc3ccccc3)C(=O)C(=O)N4CCOCC4

>  <name>  (747) 
neg75670

$$$$
neg287904
     RDKit          3D

 25 26  0  0  0  0  0  0  0  0999 V2000
    0.3230    1.2990   48.1150 C   0  0  0  0  0  0  0  0  0  0  0  0
    3.4500   -0.6270   55.2550 C   0  0  0  0  0  0  0  0  0  0  0  0
    0.5450    2.4540   47.3820 C   0  0  0  0  0  0  0  0  0  0  0  0
    3.1790    0.7220   55.4010 C   0  0  0  0  0  0  0  0  0  0  0  0
    0.8040    1.2100   49.4060 C   0  0  0  0  0  0  0  0  0  0  0  0
    3.1760   -1.2560   54.0450 C   0  0  0  0  0  0  0  0  0  0  0  0
    1.2900    3.5020   47.9160 C   0  0  0  0  0  0  0  0  0  0  0  0
    2.5720    1.3950   54.3630 C   0  0  0  0  0  0  0  0  0  0  0  0
    1.5770    2.2420   49.9640 C   0  0  0  0  0  0  0  0  0  0  0  0
    2.6610   -0.5650   52.9630 C   0  0  0  0  0  0  0  0  0  0  0  0
    1.8600    3.3850   49.1900 C   0  0  0  0  0  0  0  0  0  0  0  0
    2.2000    0.7110   53.2050 C   0  0  0  0  0  0  0  0  0  0  0  0
    2.1210    2.0800   51.2880 C   0  0  0  0  0  0  0  0  0  0  0  0
    2.7820   -1.0300   51.5910 C   0  0  0  0  0  0  0  0  0  0  0  0
    3.7610    4.7510   48.6270 C   0  0  0  0  0  0  0  0  0  0  0  0
    4.7300    0.2670   50.9190 C   0  0  0  0  0  0  0  0  0  0  0  0
    3.0320    5.4220   52.2500 C   0  0  0  0  0  0  0  0  0  0  0  0
    1.4700    1.2710   52.1700 N   0  0  0  0  0  0  0  0  0  0  0  0
    2.8070    4.3510   49.6430 N   0  0  0  0  0  0  0  0  0  0  0  0
    3.1730    2.5530   51.6650 O   0  0  0  0  0  0  0  0  0  0  0  0
    1.8940   -1.4770   50.9100 O   0  0  0  0  0  0  0  0  0  0  0  0
    0.9660    5.7460   50.7330 O   0  0  0  0  0  0  0  0  0  0  0  0
    3.0630    6.8390   50.1480 O   0  0  0  0  0  0  0  0  0  0  0  0
    3.9330   -0.8800   50.9350 O   0  0  0  0  0  0  0  0  0  0  0  0
    2.3830    5.6850   50.6220 S   0  0  0  0  0  0  0  0  0  0  0  0
  1  3  2  0
  1  5  1  0
  2  4  2  0
  2  6  1  0
  3  7  1  0
  4  8  1  0
  5  9  2  0
  6 10  2  0
  7 11  2  0
  8 12  2  0
  9 11  1  0
  9 13  1  0
 10 12  1  0
 10 14  1  0
 11 19  1  0
 12 18  1  0
 13 18  1  0
 13 20  2  0
 14 21  2  0
 14 24  1  0
 15 19  1  0
 16 24  1  0
 17 25  1  0
 19 25  1  0
 22 25  2  0
 23 25  2  0
M  END
>  <washed_aromatic_smiles>  (748) 
CN(c1ccccc1C(=O)Nc2ccccc2C(=O)OC)S(=O)(=O)C

>  <name>  (748) 
neg287904

$$$$
neg216017
     RDKit          3D

 26 29  0  0  1  0  0  0  0  0999 V2000
    0.7700    1.4500   46.3630 C   0  0  0  0  0  0  0  0  0  0  0  0
    0.8620    0.9600   48.7280 C   0  0  0  0  0  0  0  0  0  0  0  0
    1.4620    7.6090   54.0130 C   0  0  0  0  0  0  0  0  0  0  0  0
    3.0310    8.1180   52.2630 C   0  0  0  0  0  0  0  0  0  0  0  0
    1.1250    0.1590   46.0710 C   0  0  0  0  0  0  0  0  0  0  0  0
    1.0890   -0.3730   48.4440 C   0  0  0  0  0  0  0  0  0  0  0  0
    2.1270    8.4890   54.8640 C   0  0  0  0  0  0  0  0  0  0  0  0
    3.7170    8.9830   53.1060 C   0  0  0  0  0  0  0  0  0  0  0  0
    0.8370    1.8990   47.6840 C   0  0  0  0  0  0  0  0  0  0  0  0
    1.9310    7.3810   52.7120 C   0  0  0  0  0  0  0  0  0  0  0  0
    1.3510   -0.7090   47.1220 C   0  0  0  0  0  0  0  0  0  0  0  0
    3.2680    9.1320   54.4080 C   0  0  0  0  0  0  0  0  0  0  0  0
    1.0910    4.9810   49.8490 C   0  0  0  0  0  0  0  0  0  0  0  0
    1.4880    3.8130   49.0850 C   0  0  0  0  0  0  0  0  0  0  0  0
    1.7970    5.5550   50.9640 C   0  0  0  0  0  0  0  0  0  0  0  0
    0.9090    3.3060   47.9740 C   0  0  0  0  0  0  0  0  0  0  0  0
    1.2380    6.4970   51.7880 C   0  0  0  0  0  0  0  0  0  0  0  0
    3.7020    4.5320   48.6460 C   0  0  0  0  0  0  0  0  0  0  0  0
    3.9340    5.5870   49.7250 C   0  0  0  0  0  0  0  0  0  0  0  0
    2.8860    3.4290   49.3280 C   0  0  1  0  0  0  0  0  0  0  0  0
    3.1980    5.0550   50.9740 C   0  0  2  0  0  0  0  0  0  0  0  0
    2.5640    2.6230   51.6070 C   0  0  0  0  0  0  0  0  0  0  0  0
    3.1730    3.5880   50.7170 N   0  0  0  0  0  0  0  0  0  0  0  0
    0.1200    5.5430   49.5270 O   0  0  0  0  0  0  0  0  0  0  0  0
    1.7920   -1.9250   46.8090 F   0  0  0  0  0  0  0  0  0  0  0  0
    3.9600    9.9390   55.2590 F   0  0  0  0  0  0  0  0  0  0  0  0
  1  5  2  0
  1  9  1  0
  2  6  1  0
  2  9  2  0
  3  7  2  0
  3 10  1  0
  4  8  1  0
  4 10  2  0
  5 11  1  0
  6 11  2  0
  7 12  1  0
  8 12  2  0
  9 16  1  0
 10 17  1  0
 11 25  1  0
 12 26  1  0
 13 14  1  0
 13 15  1  0
 13 24  2  0
 14 16  2  0
 14 20  1  0
 15 17  2  0
 15 21  1  0
 18 19  1  0
 20 18  1  6
 21 19  1  6
 20 23  1  0
 21 23  1  0
 22 23  1  0
M  END
>  <washed_aromatic_smiles>  (749) 
CN1C2/C(=C\c3ccc(cc3)F)/C(=O)/C(=C/c4ccc(cc4)F)/C1CC2

>  <name>  (749) 
neg216017

$$$$
neg159027
     RDKit          3D

 26 27  0  0  0  0  0  0  0  0999 V2000
    2.7880    3.5750   52.0060 C   0  0  0  0  0  0  0  0  0  0  0  0
    1.8340    3.9000   49.8160 C   0  0  0  0  0  0  0  0  0  0  0  0
    2.3100    4.4400   51.0200 C   0  0  0  0  0  0  0  0  0  0  0  0
    2.7590    2.1970   51.8330 C   0  0  0  0  0  0  0  0  0  0  0  0
    1.8320    2.5110   49.6280 C   0  0  0  0  0  0  0  0  0  0  0  0
    2.2790    1.6530   50.6420 C   0  0  0  0  0  0  0  0  0  0  0  0
    2.3700    5.8790   51.2590 C   0  0  0  0  0  0  0  0  0  0  0  0
    3.7200    9.5330   53.7750 C   0  0  0  0  0  0  0  0  0  0  0  0
    4.3520    8.1040   55.6570 C   0  0  0  0  0  0  0  0  0  0  0  0
    4.6680   10.6070   55.7540 C   0  0  0  0  0  0  0  0  0  0  0  0
    4.5340    8.0690   57.1770 C   0  0  0  0  0  0  0  0  0  0  0  0
    4.8490   10.4800   57.2740 C   0  0  0  0  0  0  0  0  0  0  0  0
    5.6720    9.0580   59.1620 C   0  0  0  0  0  0  0  0  0  0  0  0
    2.5230    0.2510   53.3860 C   0  0  0  0  0  0  0  0  0  0  0  0
    0.7450    2.5260   47.3400 C   0  0  0  0  0  0  0  0  0  0  0  0
    1.1750   -0.4860   50.0110 C   0  0  0  0  0  0  0  0  0  0  0  0
    3.3490    8.3000   52.9300 C   0  0  0  0  0  0  0  0  0  0  0  0
    1.9150    7.7600   52.9700 C   0  0  0  0  0  0  0  0  0  0  0  0
    4.0420    9.4250   55.0880 N   0  0  0  0  0  0  0  0  0  0  0  0
    5.4120    9.1580   57.6950 N   0  0  0  0  0  0  0  0  0  0  0  0
    1.7860    6.3820   52.4170 N   0  0  0  0  0  0  0  0  0  0  0  0
    2.9620    6.6250   50.4940 O   0  0  0  0  0  0  0  0  0  0  0  0
    3.8810   10.5950   53.1800 O   0  0  0  0  0  0  0  0  0  0  0  0
    3.2150    1.4200   52.8860 O   0  0  0  0  0  0  0  0  0  0  0  0
    1.4350    1.9360   48.4400 O   0  0  0  0  0  0  0  0  0  0  0  0
    2.2960    0.2830   50.4860 O   0  0  0  0  0  0  0  0  0  0  0  0
  1  3  2  0
  1  4  1  0
  2  3  1  0
  2  5  2  0
  3  7  1  0
  4  6  2  0
  4 24  1  0
  5  6  1  0
  5 25  1  0
  6 26  1  0
  7 21  1  0
  7 22  2  0
  8 17  1  0
  8 19  1  0
  8 23  2  0
  9 11  1  0
  9 19  1  0
 10 12  1  0
 10 19  1  0
 11 20  1  0
 12 20  1  0
 13 20  1  0
 14 24  1  0
 15 25  1  0
 16 26  1  0
 17 18  1  0
 18 21  1  0
M  CHG  1  20   1
M  END
>  <washed_aromatic_smiles>  (750) 
CN1CCN(CC1)C(=O)CCNC(=O)c2cc(c(c(c2)OC)OC)OC

>  <name>  (750) 
neg159027

$$$$
neg270831
     RDKit          3D

 25 27  0  0  0  0  0  0  0  0999 V2000
    1.4050    1.8830   50.6640 C   0  0  0  0  0  0  0  0  0  0  0  0
    1.2920    0.5390   50.6450 C   0  0  0  0  0  0  0  0  0  0  0  0
    2.7670    1.7670   52.6690 C   0  0  0  0  0  0  0  0  0  0  0  0
    2.2550    2.4990   51.5950 C   0  0  0  0  0  0  0  0  0  0  0  0
    2.5390    0.4240   52.7450 C   0  0  0  0  0  0  0  0  0  0  0  0
    1.9660   -0.1510   51.6160 C   0  0  0  0  0  0  0  0  0  0  0  0
    2.4220    3.9190   51.6320 C   0  0  0  0  0  0  0  0  0  0  0  0
    5.0240    0.7860   58.0830 C   0  0  0  0  0  0  0  0  0  0  0  0
    5.5700   -0.3450   57.2210 C   0  0  0  0  0  0  0  0  0  0  0  0
    4.5800    1.8200   57.0630 C   0  0  0  0  0  0  0  0  0  0  0  0
    4.5240   -0.8680   56.2290 C   0  0  0  0  0  0  0  0  0  0  0  0
    3.4150    1.3570   56.1530 C   0  0  0  0  0  0  0  0  0  0  0  0
    2.0410    4.3950   49.3120 C   0  0  0  0  0  0  0  0  0  0  0  0
    1.5940    6.0670   51.1570 C   0  0  0  0  0  0  0  0  0  0  0  0
    3.3960    4.9810   49.0510 C   0  0  0  0  0  0  0  0  0  0  0  0
    2.9190    6.7450   50.7800 C   0  0  0  0  0  0  0  0  0  0  0  0
    3.6500    7.2810   48.4040 C   0  0  0  0  0  0  0  0  0  0  0  0
    1.6920    4.6540   50.7560 N   0  0  0  0  0  0  0  0  0  0  0  0
    3.2350    6.3610   49.3800 N   0  0  0  0  0  0  0  0  0  0  0  0
    3.7080    0.1060   55.4080 N   0  0  0  0  0  0  0  0  0  0  0  0
    3.0990    4.4800   52.4890 O   0  0  0  0  0  0  0  0  0  0  0  0
    1.3770   -0.7230   54.6890 O   0  0  0  0  0  0  0  0  0  0  0  0
    3.2610   -1.7880   53.8140 O   0  0  0  0  0  0  0  0  0  0  0  0
    2.6900   -0.5790   54.2180 S   0  0  0  0  0  0  0  0  0  0  0  0
    2.1760   -1.7190   51.2260 Cl  0  0  0  0  0  0  0  0  0  0  0  0
  1  2  2  0
  1  4  1  0
  2  6  1  0
  3  4  2  0
  3  5  1  0
  4  7  1  0
  5  6  2  0
  5 24  1  0
  6 25  1  0
  7 18  1  0
  7 21  2  0
  8  9  1  0
  8 10  1  0
  9 11  1  0
 10 12  1  0
 11 20  1  0
 12 20  1  0
 13 15  1  0
 13 18  1  0
 14 16  1  0
 14 18  1  0
 15 19  1  0
 16 19  1  0
 17 19  1  0
 20 24  1  0
 22 24  2  0
 23 24  2  0
M  CHG  1  19   1
M  END
>  <washed_aromatic_smiles>  (751) 
CN1CCN(CC1)C(=O)c2ccc(c(c2)S(=O)(=O)N3CCCCC3)Cl

>  <name>  (751) 
neg270831

$$$$
neg19283
     RDKit          3D

 26 28  0  0  0  0  0  0  0  0999 V2000
    0.7910    0.2780   47.1990 C   0  0  0  0  0  0  0  0  0  0  0  0
    1.1610   -0.9170   47.8380 C   0  0  0  0  0  0  0  0  0  0  0  0
    0.6720    1.4160   47.9590 C   0  0  0  0  0  0  0  0  0  0  0  0
    1.2810   -0.9840   49.2020 C   0  0  0  0  0  0  0  0  0  0  0  0
    2.9650    1.7400   55.2750 C   0  0  0  0  0  0  0  0  0  0  0  0
    3.7730   -0.4730   55.7720 C   0  0  0  0  0  0  0  0  0  0  0  0
    2.6800    1.3450   53.9670 C   0  0  0  0  0  0  0  0  0  0  0  0
    3.3600   -0.8750   54.5110 C   0  0  0  0  0  0  0  0  0  0  0  0
    0.9860    1.3800   49.3240 C   0  0  0  0  0  0  0  0  0  0  0  0
    1.1500    0.1500   50.0120 C   0  0  0  0  0  0  0  0  0  0  0  0
    3.5680    0.8440   56.1340 C   0  0  0  0  0  0  0  0  0  0  0  0
    2.8710    0.0270   53.5790 C   0  0  0  0  0  0  0  0  0  0  0  0
    1.2830    2.5180   50.1020 C   0  0  0  0  0  0  0  0  0  0  0  0
    2.8480    3.4510   48.5110 C   0  0  0  0  0  0  0  0  0  0  0  0
    2.4320    4.5300   50.8670 C   0  0  0  0  0  0  0  0  0  0  0  0
    3.7360    4.6430   48.2990 C   0  0  0  0  0  0  0  0  0  0  0  0
    3.2520    5.7130   50.4010 C   0  0  0  0  0  0  0  0  0  0  0  0
    3.6290    7.0840   48.4360 C   0  0  0  0  0  0  0  0  0  0  0  0
    2.1380    3.5230   49.7810 N   0  0  0  0  0  0  0  0  0  0  0  0
    3.1650    5.8320   48.9440 N   0  0  0  0  0  0  0  0  0  0  0  0
    1.3270    0.1020   51.3260 N   0  0  0  0  0  0  0  0  0  0  0  0
    0.8080    2.6060   51.1970 O   0  0  0  0  0  0  0  0  0  0  0  0
    2.3730   -1.9840   52.0560 O   0  0  0  0  0  0  0  0  0  0  0  0
    3.7830   -0.2240   51.1490 O   0  0  0  0  0  0  0  0  0  0  0  0
    3.9710    1.2670   57.3590 F   0  0  0  0  0  0  0  0  0  0  0  0
    2.6340   -0.6010   51.9210 S   0  0  2  0  0  0  0  0  0  0  0  0
  1  2  2  0
  1  3  1  0
  2  4  1  0
  3  9  2  0
  4 10  2  0
  5  7  2  0
  5 11  1  0
  6  8  1  0
  6 11  2  0
  7 12  1  0
  8 12  2  0
  9 10  1  0
  9 13  1  0
 10 21  1  0
 11 25  1  0
 12 26  1  0
 13 19  1  0
 13 22  2  0
 14 16  1  0
 14 19  1  0
 15 17  1  0
 15 19  1  0
 16 20  1  0
 17 20  1  0
 18 20  1  0
 21 26  2  0
 23 26  2  0
 26 24  1  6
M  CHG  2  20   1  24  -1
M  END
>  <washed_aromatic_smiles>  (752) 
CN1CCN(CC1)C(=O)c2ccccc2NS(=O)(=O)c3ccc(cc3)F

>  <name>  (752) 
neg19283

$$$$
neg278700
     RDKit          3D

 31 34  0  0  0  0  0  0  0  0999 V2000
    3.6720    9.2840   56.0770 C   0  0  0  0  0  0  0  0  0  0  0  0
    4.8250    9.8130   55.5490 C   0  0  0  0  0  0  0  0  0  0  0  0
    3.9060    9.7800   53.3370 C   0  0  0  0  0  0  0  0  0  0  0  0
    2.8740    9.0550   53.8220 C   0  0  0  0  0  0  0  0  0  0  0  0
    2.6360    9.0080   55.1830 C   0  0  0  0  0  0  0  0  0  0  0  0
    4.8690   10.1680   54.1890 C   0  0  0  0  0  0  0  0  0  0  0  0
    0.5380    8.0670   54.6150 C   0  0  0  0  0  0  0  0  0  0  0  0
    2.1950    8.2520   52.9110 C   0  0  0  0  0  0  0  0  0  0  0  0
    1.0430    7.6130   53.3940 C   0  0  0  0  0  0  0  0  0  0  0  0
   -1.1590    7.6290   57.4440 C   0  0  0  0  0  0  0  0  0  0  0  0
   -0.3430    8.6630   57.6670 C   0  0  0  0  0  0  0  0  0  0  0  0
    0.5360    6.5880   52.5060 C   0  0  0  0  0  0  0  0  0  0  0  0
    4.4110   13.7850   55.2040 C   0  0  0  0  0  0  0  0  0  0  0  0
    5.0080   12.9810   56.2980 C   0  0  0  0  0  0  0  0  0  0  0  0
    4.9750   13.2880   53.8910 C   0  0  0  0  0  0  0  0  0  0  0  0
    6.2980   12.5480   55.6580 C   0  0  0  0  0  0  0  0  0  0  0  0
    2.8350    5.3910   51.9960 C   0  0  0  0  0  0  0  0  0  0  0  0
    0.8790    4.9820   50.6700 C   0  0  0  0  0  0  0  0  0  0  0  0
    3.5840    5.5210   50.6510 C   0  0  0  0  0  0  0  0  0  0  0  0
    1.6990    4.6690   49.4270 C   0  0  0  0  0  0  0  0  0  0  0  0
    3.8270    4.5410   48.3470 C   0  0  0  0  0  0  0  0  0  0  0  0
    0.9810    9.0130   56.9870 C   0  0  0  0  0  0  0  0  0  0  0  0
    1.3400    8.7110   55.5450 N   0  0  0  0  0  0  0  0  0  0  0  0
    1.4080    5.7130   51.7910 N   0  0  0  0  0  0  0  0  0  0  0  0
    3.1320    4.4990   49.6500 N   0  0  0  0  0  0  0  0  0  0  0  0
    6.1090   12.4520   54.1990 N   0  0  0  0  0  0  0  0  0  0  0  0
    2.6970    8.0910   51.8070 O   0  0  0  0  0  0  0  0  0  0  0  0
   -0.6560    6.4900   52.2710 O   0  0  0  0  0  0  0  0  0  0  0  0
    7.2290   10.2120   53.5930 O   0  0  0  0  0  0  0  0  0  0  0  0
    5.8250   11.2590   52.0250 O   0  0  0  0  0  0  0  0  0  0  0  0
    6.1260   11.0190   53.3830 S   0  0  0  0  0  0  0  0  0  0  0  0
  1  2  2  0
  1  5  1  0
  2  6  1  0
  3  4  1  0
  3  6  2  0
  4  5  2  0
  4  8  1  0
  5 23  1  0
  6 31  1  0
  7  9  2  0
  7 23  1  0
  8  9  1  0
  8 27  2  0
  9 12  1  0
 10 11  2  0
 11 22  1  0
 12 24  1  0
 12 28  2  0
 13 14  1  0
 13 15  1  0
 14 16  1  0
 15 26  1  0
 16 26  1  0
 17 19  1  0
 17 24  1  0
 18 20  1  0
 18 24  1  0
 19 25  1  0
 20 25  1  0
 21 25  1  0
 22 23  1  0
 26 31  1  0
 29 31  2  0
 30 31  2  0
M  CHG  1  25   1
M  END
>  <washed_aromatic_smiles>  (753) 
CN1CCN(CC1)C(=O)c2cn(c3ccc(cc3c2=O)S(=O)(=O)N4CCCC4)CC=C

>  <name>  (753) 
neg278700

$$$$
neg14278
     RDKit          3D

 28 30  0  0  0  0  0  0  0  0999 V2000
    5.9250   -0.1630   58.4520 C   0  0  0  0  0  0  0  0  0  0  0  0
    5.6920   -1.1340   57.4890 C   0  0  0  0  0  0  0  0  0  0  0  0
    5.4060    1.1110   58.2760 C   0  0  0  0  0  0  0  0  0  0  0  0
    1.6630    0.6220   50.1390 C   0  0  0  0  0  0  0  0  0  0  0  0
    4.9010   -0.8590   56.3790 C   0  0  0  0  0  0  0  0  0  0  0  0
    4.6120    1.3940   57.1730 C   0  0  0  0  0  0  0  0  0  0  0  0
    1.9160    1.9880   50.0910 C   0  0  0  0  0  0  0  0  0  0  0  0
    1.9290   -0.1070   51.3010 C   0  0  0  0  0  0  0  0  0  0  0  0
    2.7780    1.8620   52.3510 C   0  0  0  0  0  0  0  0  0  0  0  0
    4.2790    0.3840   56.2400 C   0  0  0  0  0  0  0  0  0  0  0  0
    2.4650    2.5980   51.2170 C   0  0  0  0  0  0  0  0  0  0  0  0
    2.4470    0.5200   52.4390 C   0  0  0  0  0  0  0  0  0  0  0  0
    1.9930    5.0350   50.8710 C   0  0  0  0  0  0  0  0  0  0  0  0
    3.3410    7.8680   54.7370 C   0  0  0  0  0  0  0  0  0  0  0  0
    0.9070    8.1410   54.3430 C   0  0  0  0  0  0  0  0  0  0  0  0
    3.4720    7.3760   53.3020 C   0  0  0  0  0  0  0  0  0  0  0  0
    1.0970    7.5930   52.9110 C   0  0  0  0  0  0  0  0  0  0  0  0
    2.0540    9.1470   56.4100 C   0  0  0  0  0  0  0  0  0  0  0  0
    2.4740    1.7780   55.4970 C   0  0  0  0  0  0  0  0  0  0  0  0
    2.5270    6.3610   51.3470 C   0  0  0  0  0  0  0  0  0  0  0  0
    2.1620    8.7480   54.9620 N   0  0  0  0  0  0  0  0  0  0  0  0
    2.2770    6.7010   52.7770 N   0  0  0  0  0  0  0  0  0  0  0  0
    2.7110    3.9770   51.3430 N   0  0  0  0  0  0  0  0  0  0  0  0
    3.3140    0.6540   55.1710 N   0  0  0  0  0  0  0  0  0  0  0  0
    1.0380    4.8980   50.1380 O   0  0  0  0  0  0  0  0  0  0  0  0
    3.2360   -1.5540   53.8130 O   0  0  0  0  0  0  0  0  0  0  0  0
    1.1680   -0.5880   54.3750 O   0  0  0  0  0  0  0  0  0  0  0  0
    2.5120   -0.3740   54.0080 S   0  0  0  0  0  0  0  0  0  0  0  0
  1  2  2  0
  1  3  1  0
  2  5  1  0
  3  6  2  0
  4  7  2  0
  4  8  1  0
  5 10  2  0
  6 10  1  0
  7 11  1  0
  8 12  2  0
  9 11  2  0
  9 12  1  0
 10 24  1  0
 11 23  1  0
 12 28  1  0
 13 20  1  0
 13 23  1  0
 13 25  2  0
 14 16  1  0
 14 21  1  0
 15 17  1  0
 15 21  1  0
 16 22  1  0
 17 22  1  0
 18 21  1  0
 19 24  1  0
 20 22  1  0
 24 28  1  0
 26 28  2  0
 27 28  2  0
M  CHG  1  21   1
M  END
>  <washed_aromatic_smiles>  (754) 
CN1CCN(CC1)CC(=O)Nc2cccc(c2)S(=O)(=O)N(C)c3ccccc3

>  <name>  (754) 
neg14278

$$$$
neg103216
     RDKit          3D

 26 28  0  0  0  0  0  0  0  0999 V2000
    0.9430    1.1130   49.6530 C   0  0  0  0  0  0  0  0  0  0  0  0
    0.9060    1.5570   48.3330 C   0  0  0  0  0  0  0  0  0  0  0  0
    1.4000    1.9550   50.6640 C   0  0  0  0  0  0  0  0  0  0  0  0
    3.5190    6.4250   53.0830 C   0  0  0  0  0  0  0  0  0  0  0  0
    1.6610    7.7450   52.3210 C   0  0  0  0  0  0  0  0  0  0  0  0
    1.3430    2.8400   48.0240 C   0  0  0  0  0  0  0  0  0  0  0  0
    4.1010    7.5780   53.5900 C   0  0  0  0  0  0  0  0  0  0  0  0
    2.2910    8.9030   52.7860 C   0  0  0  0  0  0  0  0  0  0  0  0
    1.8130    3.2680   50.3790 C   0  0  0  0  0  0  0  0  0  0  0  0
    2.3330    6.5220   52.3560 C   0  0  0  0  0  0  0  0  0  0  0  0
    1.7950    3.6700   49.0400 C   0  0  0  0  0  0  0  0  0  0  0  0
    3.5560    8.8330   53.3710 C   0  0  0  0  0  0  0  0  0  0  0  0
    2.2600    4.1320   51.4650 C   0  0  0  0  0  0  0  0  0  0  0  0
    5.1920   11.6140   57.4890 C   0  0  0  0  0  0  0  0  0  0  0  0
    3.6870    9.6400   57.7070 C   0  0  0  0  0  0  0  0  0  0  0  0
    4.5240   11.7430   56.1080 C   0  0  0  0  0  0  0  0  0  0  0  0
    4.1530    9.2790   56.3110 C   0  0  0  0  0  0  0  0  0  0  0  0
    5.6700    9.8010   59.1390 C   0  0  0  0  0  0  0  0  0  0  0  0
    4.6100   10.5700   58.4220 N   0  0  0  0  0  0  0  0  0  0  0  0
    4.2240   10.4530   55.4390 N   0  0  0  0  0  0  0  0  0  0  0  0
    1.8290    5.4590   51.5330 N   0  0  0  0  0  0  0  0  0  0  0  0
    2.9260    3.6700   52.3760 O   0  0  0  0  0  0  0  0  0  0  0  0
    5.9630    9.8470   53.7350 O   0  0  0  0  0  0  0  0  0  0  0  0
    4.2190   11.3900   53.1010 O   0  0  0  0  0  0  0  0  0  0  0  0
    2.2580    4.8970   48.6910 F   0  0  0  0  0  0  0  0  0  0  0  0
    4.5940   10.2330   53.8390 S   0  0  0  0  0  0  0  0  0  0  0  0
  1  2  2  0
  1  3  1  0
  2  6  1  0
  3  9  2  0
  4  7  2  0
  4 10  1  0
  5  8  1  0
  5 10  2  0
  6 11  2  0
  7 12  1  0
  8 12  2  0
  9 11  1  0
  9 13  1  0
 10 21  1  0
 11 25  1  0
 12 26  1  0
 13 21  1  0
 13 22  2  0
 14 16  1  0
 14 19  1  0
 15 17  1  0
 15 19  1  0
 16 20  1  0
 17 20  1  0
 18 19  1  0
 20 26  1  0
 23 26  2  0
 24 26  2  0
M  CHG  1  19   1
M  END
>  <washed_aromatic_smiles>  (755) 
CN1CCN(CC1)S(=O)(=O)c2ccc(cc2)NC(=O)c3ccccc3F

>  <name>  (755) 
neg103216

$$$$
neg132833
     RDKit          3D

 27 29  0  0  0  0  0  0  0  0999 V2000
    0.6650    0.3560   48.6510 C   0  0  0  0  0  0  0  0  0  0  0  0
    1.1750   -0.2390   49.7980 C   0  0  0  0  0  0  0  0  0  0  0  0
    3.4140    1.5880   56.2960 C   0  0  0  0  0  0  0  0  0  0  0  0
    3.9320   -0.6290   55.5470 C   0  0  0  0  0  0  0  0  0  0  0  0
    1.0450    1.6490   48.3060 C   0  0  0  0  0  0  0  0  0  0  0  0
    4.2980    1.4330   57.3610 C   0  0  0  0  0  0  0  0  0  0  0  0
    4.8040   -0.8060   56.6150 C   0  0  0  0  0  0  0  0  0  0  0  0
    2.4910    1.7230   50.2260 C   0  0  0  0  0  0  0  0  0  0  0  0
    2.0610    0.4560   50.6280 C   0  0  0  0  0  0  0  0  0  0  0  0
    3.2180    0.5470   55.3900 C   0  0  0  0  0  0  0  0  0  0  0  0
    1.9710    2.3390   49.0880 C   0  0  0  0  0  0  0  0  0  0  0  0
    4.9630    0.2200   57.5420 C   0  0  0  0  0  0  0  0  0  0  0  0
    2.4630   -0.0890   51.9260 C   0  0  0  0  0  0  0  0  0  0  0  0
    0.8460    5.7610   51.7150 C   0  0  0  0  0  0  0  0  0  0  0  0
    2.8210    7.0420   51.1770 C   0  0  0  0  0  0  0  0  0  0  0  0
    1.6030    4.5040   51.2820 C   0  0  0  0  0  0  0  0  0  0  0  0
    3.4990    5.8140   50.5570 C   0  0  0  0  0  0  0  0  0  0  0  0
    1.0790    8.0370   52.7000 C   0  0  0  0  0  0  0  0  0  0  0  0
    2.2180    0.6100   54.2640 C   0  0  0  0  0  0  0  0  0  0  0  0
    1.7760    6.7920   52.2260 N   0  0  0  0  0  0  0  0  0  0  0  0
    2.5850    4.7190   50.2460 N   0  0  0  0  0  0  0  0  0  0  0  0
    2.7710    0.8020   52.9280 N   0  0  0  0  0  0  0  0  0  0  0  0
    2.4690   -1.2870   52.1890 O   0  0  0  0  0  0  0  0  0  0  0  0
    1.3080    4.6540   48.0680 O   0  0  0  0  0  0  0  0  0  0  0  0
    3.6520    4.0590   48.0430 O   0  0  0  0  0  0  0  0  0  0  0  0
    2.4070    4.0470   48.7320 S   0  0  0  0  0  0  0  0  0  0  0  0
    5.9490   -0.0270   58.9410 Cl  0  0  0  0  0  0  0  0  0  0  0  0
  1  2  2  0
  1  5  1  0
  2  9  1  0
  3  6  2  0
  3 10  1  0
  4  7  1  0
  4 10  2  0
  5 11  2  0
  6 12  1  0
  7 12  2  0
  8  9  2  0
  8 11  1  0
  9 13  1  0
 10 19  1  0
 11 26  1  0
 12 27  1  0
 13 22  1  0
 13 23  2  0
 14 16  1  0
 14 20  1  0
 15 17  1  0
 15 20  1  0
 16 21  1  0
 17 21  1  0
 18 20  1  0
 19 22  1  0
 21 26  1  0
 24 26  2  0
 25 26  2  0
M  CHG  1  20   1
M  END
>  <washed_aromatic_smiles>  (756) 
CN1CCN(CC1)S(=O)(=O)c2cccc(c2)C(=O)NCc3ccc(cc3)Cl

>  <name>  (756) 
neg132833

$$$$
neg79724
     RDKit          3D

 31 33  0  0  0  0  0  0  0  0999 V2000
    0.6660    8.2090   52.4180 C   0  0  0  0  0  0  0  0  0  0  0  0
    0.8910    6.8800   52.1180 C   0  0  0  0  0  0  0  0  0  0  0  0
    1.7180    9.0140   52.8230 C   0  0  0  0  0  0  0  0  0  0  0  0
    1.2700    0.3920   49.7700 C   0  0  0  0  0  0  0  0  0  0  0  0
    2.0290    2.0330   51.3510 C   0  0  0  0  0  0  0  0  0  0  0  0
    1.4150    2.7230   49.1170 C   0  0  0  0  0  0  0  0  0  0  0  0
    3.1820    7.1460   52.8440 C   0  0  0  0  0  0  0  0  0  0  0  0
    2.1730    6.3560   52.2730 C   0  0  0  0  0  0  0  0  0  0  0  0
    1.7060    0.7160   51.0570 C   0  0  0  0  0  0  0  0  0  0  0  0
    1.1420    1.3870   48.7890 C   0  0  0  0  0  0  0  0  0  0  0  0
    1.8250    3.0500   50.4100 C   0  0  0  0  0  0  0  0  0  0  0  0
    2.9850    8.5030   53.0820 C   0  0  0  0  0  0  0  0  0  0  0  0
    2.4620    4.9880   51.8960 C   0  0  0  0  0  0  0  0  0  0  0  0
    1.8100   -0.2660   52.1270 C   0  0  0  0  0  0  0  0  0  0  0  0
    0.7380    1.0130   47.4390 C   0  0  0  0  0  0  0  0  0  0  0  0
    4.4490    8.1990   57.4560 C   0  0  0  0  0  0  0  0  0  0  0  0
    4.8360   10.5610   57.5990 C   0  0  0  0  0  0  0  0  0  0  0  0
    4.3220    8.2480   55.9410 C   0  0  0  0  0  0  0  0  0  0  0  0
    4.7030   10.7310   56.0800 C   0  0  0  0  0  0  0  0  0  0  0  0
    5.6710    9.0670   59.4090 C   0  0  0  0  0  0  0  0  0  0  0  0
    5.3770    9.2240   57.9710 N   0  0  0  0  0  0  0  0  0  0  0  0
    4.0920    9.5880   55.3430 N   0  0  0  0  0  0  0  0  0  0  0  0
    2.4900   -1.4120   51.9010 N   0  0  0  0  0  0  0  0  0  0  0  0
   -0.0070    1.8700   46.6960 N   0  0  0  0  0  0  0  0  0  0  0  0
    1.9380    4.4430   50.7310 N   0  0  0  0  0  0  0  0  0  0  0  0
    3.1610    4.3080   52.6050 O   0  0  0  0  0  0  0  0  0  0  0  0
    1.3430   -0.1040   53.2490 O   0  0  0  0  0  0  0  0  0  0  0  0
    1.0560   -0.0460   46.9200 O   0  0  0  0  0  0  0  0  0  0  0  0
    5.5780    9.0910   53.4220 O   0  0  0  0  0  0  0  0  0  0  0  0
    4.0520   10.9310   53.2080 O   0  0  0  0  0  0  0  0  0  0  0  0
    4.2890    9.6180   53.6980 S   0  0  0  0  0  0  0  0  0  0  0  0
  1  2  2  0
  1  3  1  0
  2  8  1  0
  3 12  2  0
  4  9  2  0
  4 10  1  0
  5  9  1  0
  5 11  2  0
  6 10  2  0
  6 11  1  0
  7  8  2  0
  7 12  1  0
  8 13  1  0
  9 14  1  0
 10 15  1  0
 11 25  1  0
 12 31  1  0
 13 25  1  0
 13 26  2  0
 14 23  1  0
 14 27  2  0
 15 24  1  0
 15 28  2  0
 16 18  1  0
 16 21  1  0
 17 19  1  0
 17 21  1  0
 18 22  1  0
 19 22  1  0
 20 21  1  0
 22 31  1  0
 29 31  2  0
 30 31  2  0
M  CHG  1  21   1
M  END
>  <washed_aromatic_smiles>  (757) 
CN1CCN(CC1)S(=O)(=O)c2cccc(c2)C(=O)Nc3cc(cc(c3)C(=O)N)C(=O)N

>  <name>  (757) 
neg79724

$$$$
neg179440
     RDKit          3D

 26 29  0  0  0  0  0  0  0  0999 V2000
    3.4750    8.8750   55.8820 C   0  0  0  0  0  0  0  0  0  0  0  0
    2.7670    4.2410   51.7640 C   0  0  0  0  0  0  0  0  0  0  0  0
    2.7860    5.3770   49.6350 C   0  0  0  0  0  0  0  0  0  0  0  0
    3.0740    5.4380   52.3860 C   0  0  0  0  0  0  0  0  0  0  0  0
    3.0400    6.5750   50.2870 C   0  0  0  0  0  0  0  0  0  0  0  0
    4.0690    9.8270   56.6990 C   0  0  0  0  0  0  0  0  0  0  0  0
    4.1790   10.0790   53.9020 C   0  0  0  0  0  0  0  0  0  0  0  0
    3.4850    9.0050   54.4810 C   0  0  0  0  0  0  0  0  0  0  0  0
    2.5460    4.2100   50.3800 C   0  0  0  0  0  0  0  0  0  0  0  0
    3.0360    6.6200   51.6720 C   0  0  0  0  0  0  0  0  0  0  0  0
    4.6750   10.9320   56.1180 C   0  0  0  0  0  0  0  0  0  0  0  0
    4.7310   11.0540   54.7210 C   0  0  0  0  0  0  0  0  0  0  0  0
    2.7420    8.0450   53.6730 C   0  0  0  0  0  0  0  0  0  0  0  0
    2.3600    1.6800   50.2900 C   0  0  0  0  0  0  0  0  0  0  0  0
    1.6880    3.0580   48.3270 C   0  0  0  0  0  0  0  0  0  0  0  0
    1.2190    0.7010   50.0110 C   0  0  0  0  0  0  0  0  0  0  0  0
    0.6350    2.0030   47.9550 C   0  0  0  0  0  0  0  0  0  0  0  0
    5.6350   13.1550   56.3540 C   0  0  0  0  0  0  0  0  0  0  0  0
    5.0660   13.3770   54.9530 C   0  0  0  0  0  0  0  0  0  0  0  0
   -0.4410   -0.1920   48.4280 C   0  0  0  0  0  0  0  0  0  0  0  0
    2.0720    3.0240   49.7500 N   0  0  0  0  0  0  0  0  0  0  0  0
    0.7940    0.6300   48.5720 N   0  0  0  0  0  0  0  0  0  0  0  0
    3.0970    7.8680   52.3540 N   0  0  0  0  0  0  0  0  0  0  0  0
    1.8150    7.3780   54.1230 O   0  0  0  0  0  0  0  0  0  0  0  0
    5.1650   11.9210   56.9380 O   0  0  0  0  0  0  0  0  0  0  0  0
    5.2410   12.1960   54.1470 O   0  0  0  0  0  0  0  0  0  0  0  0
  1  6  2  0
  1  8  1  0
  2  4  2  0
  2  9  1  0
  3  5  1  0
  3  9  2  0
  4 10  1  0
  5 10  2  0
  6 11  1  0
  7  8  2  0
  7 12  1  0
  8 13  1  0
  9 21  1  0
 10 23  1  0
 11 12  2  0
 11 25  1  0
 12 26  1  0
 13 23  1  0
 13 24  2  0
 14 16  1  0
 14 21  1  0
 15 17  1  0
 15 21  1  0
 16 22  1  0
 17 22  1  0
 18 19  1  0
 18 25  1  0
 19 26  1  0
 20 22  1  0
M  CHG  1  22   1
M  END
>  <washed_aromatic_smiles>  (758) 
CN1CCN(CC1)c2ccc(cc2)NC(=O)c3ccc4c(c3)OCCO4

>  <name>  (758) 
neg179440

$$$$
neg66552
     RDKit          3D

 26 29  0  0  0  0  0  0  0  0999 V2000
    0.3130    2.0670   47.0040 C   0  0  0  0  0  0  0  0  0  0  0  0
    0.0930    0.8360   47.6060 C   0  0  0  0  0  0  0  0  0  0  0  0
    2.4210   -0.7510   53.0380 C   0  0  0  0  0  0  0  0  0  0  0  0
    1.1090    3.0250   47.6270 C   0  0  0  0  0  0  0  0  0  0  0  0
    0.7010    0.5240   48.8120 C   0  0  0  0  0  0  0  0  0  0  0  0
    3.1480   -1.2260   54.1000 C   0  0  0  0  0  0  0  0  0  0  0  0
    2.5940    1.4580   53.9630 C   0  0  0  0  0  0  0  0  0  0  0  0
    2.1270    0.5970   52.9600 C   0  0  0  0  0  0  0  0  0  0  0  0
    1.6970    2.7460   48.8560 C   0  0  0  0  0  0  0  0  0  0  0  0
    1.5070    1.4750   49.4250 C   0  0  0  0  0  0  0  0  0  0  0  0
    3.5160   -0.4010   55.1580 C   0  0  0  0  0  0  0  0  0  0  0  0
    3.1900    0.9480   55.1070 C   0  0  0  0  0  0  0  0  0  0  0  0
    1.3830    1.0130   51.8020 C   0  0  0  0  0  0  0  0  0  0  0  0
    2.9530    4.9060   48.8890 C   0  0  0  0  0  0  0  0  0  0  0  0
    1.5920    4.2330   50.6920 C   0  0  0  0  0  0  0  0  0  0  0  0
    3.7420    5.8440   49.8280 C   0  0  0  0  0  0  0  0  0  0  0  0
    2.4830    4.8180   51.7710 C   0  0  0  0  0  0  0  0  0  0  0  0
    5.0550    0.0480   56.9990 C   0  0  0  0  0  0  0  0  0  0  0  0
    4.2770    1.3320   57.2970 C   0  0  0  0  0  0  0  0  0  0  0  0
    2.6250    7.2510   51.6250 C   0  0  0  0  0  0  0  0  0  0  0  0
    2.3970    3.7380   49.5810 N   0  0  0  0  0  0  0  0  0  0  0  0
    3.2940    5.9620   51.2950 N   0  0  0  0  0  0  0  0  0  0  0  0
    2.1110    1.1570   50.6520 N   0  0  0  0  0  0  0  0  0  0  0  0
    0.1650    1.1750   51.7910 O   0  0  0  0  0  0  0  0  0  0  0  0
    4.2890   -0.8840   56.1930 O   0  0  0  0  0  0  0  0  0  0  0  0
    3.4970    1.7870   56.1610 O   0  0  0  0  0  0  0  0  0  0  0  0
  1  2  2  0
  1  4  1  0
  2  5  1  0
  3  6  2  0
  3  8  1  0
  4  9  2  0
  5 10  2  0
  6 11  1  0
  7  8  2  0
  7 12  1  0
  8 13  1  0
  9 10  1  0
  9 21  1  0
 10 23  1  0
 11 12  2  0
 11 25  1  0
 12 26  1  0
 13 23  1  0
 13 24  2  0
 14 16  1  0
 14 21  1  0
 15 17  1  0
 15 21  1  0
 16 22  1  0
 17 22  1  0
 18 19  1  0
 18 25  1  0
 19 26  1  0
 20 22  1  0
M  CHG  1  22   1
M  END
>  <washed_aromatic_smiles>  (759) 
CN1CCN(CC1)c2ccccc2NC(=O)c3ccc4c(c3)OCCO4

>  <name>  (759) 
neg66552

$$$$
neg100043
     RDKit          3D

 28 31  0  0  0  0  0  0  0  0999 V2000
    3.0760    4.4300   48.0980 C   0  0  0  0  0  0  0  0  0  0  0  0
    3.3180    5.8160   48.2170 C   0  0  0  0  0  0  0  0  0  0  0  0
    2.7460    3.7130   49.1980 C   0  0  0  0  0  0  0  0  0  0  0  0
    3.3210    6.4450   49.4210 C   0  0  0  0  0  0  0  0  0  0  0  0
    3.5930    1.2870   51.6630 C   0  0  0  0  0  0  0  0  0  0  0  0
    1.2430    1.7140   51.2640 C   0  0  0  0  0  0  0  0  0  0  0  0
    3.2940    8.8520   55.5470 C   0  0  0  0  0  0  0  0  0  0  0  0
    4.6350   10.2010   54.0570 C   0  0  0  0  0  0  0  0  0  0  0  0
    2.8440    8.0990   54.4670 C   0  0  0  0  0  0  0  0  0  0  0  0
    4.1840    9.4600   52.9800 C   0  0  0  0  0  0  0  0  0  0  0  0
    3.4150   -0.0190   51.2600 C   0  0  0  0  0  0  0  0  0  0  0  0
    1.0470    0.4060   50.8980 C   0  0  0  0  0  0  0  0  0  0  0  0
    2.7600    4.3490   50.4510 C   0  0  0  0  0  0  0  0  0  0  0  0
    2.9940    5.7280   50.5640 C   0  0  0  0  0  0  0  0  0  0  0  0
    2.5230    2.1840   51.5760 C   0  0  0  0  0  0  0  0  0  0  0  0
    4.1910    9.9200   55.3610 C   0  0  0  0  0  0  0  0  0  0  0  0
    3.2940    8.4050   53.1790 C   0  0  0  0  0  0  0  0  0  0  0  0
    2.1520   -0.4200   50.8530 C   0  0  0  0  0  0  0  0  0  0  0  0
    2.7530    3.6020   51.6260 C   0  0  0  0  0  0  0  0  0  0  0  0
    3.0390    6.2990   51.8500 C   0  0  0  0  0  0  0  0  0  0  0  0
    4.6330   10.7370   56.4930 C   0  0  0  0  0  0  0  0  0  0  0  0
    5.5360   12.9810   57.2110 C   0  0  0  0  0  0  0  0  0  0  0  0
    3.1150    4.1880   52.7260 N   0  0  0  0  0  0  0  0  0  0  0  0
    3.2770    5.5300   52.8700 N   0  0  0  0  0  0  0  0  0  0  0  0
    2.8720    7.6770   52.0420 N   0  0  0  0  0  0  0  0  0  0  0  0
    5.1800   11.9720   56.2180 N   0  0  0  0  0  0  0  0  0  0  0  0
    4.5330   10.3810   57.6660 O   0  0  0  0  0  0  0  0  0  0  0  0
    1.9900   -1.6180   50.3530 O   0  0  0  0  0  0  0  0  0  0  0  0
  1  2  2  0
  1  3  1  0
  2  4  1  0
  3 13  2  0
  4 14  2  0
  5 11  2  0
  5 15  1  0
  6 12  1  0
  6 15  2  0
  7  9  2  0
  7 16  1  0
  8 10  1  0
  8 16  2  0
  9 17  1  0
 10 17  2  0
 11 18  1  0
 12 18  2  0
 13 14  1  0
 13 19  1  0
 14 20  1  0
 15 19  1  0
 16 21  1  0
 17 25  1  0
 18 28  1  0
 19 23  2  0
 20 24  2  0
 20 25  1  0
 21 26  1  0
 21 27  2  0
 22 26  1  0
 23 24  1  0
M  END
>  <washed_aromatic_smiles>  (760) 
CNC(=O)c1ccc(cc1)Nc2c3ccccc3c(nn2)c4ccc(cc4)O

>  <name>  (760) 
neg100043

$$$$
neg220386
     RDKit          3D

 28 31  0  0  0  0  0  0  0  0999 V2000
    3.1510    0.9120   53.5840 C   0  0  0  0  0  0  0  0  0  0  0  0
    0.1350    1.6190   46.9090 C   0  0  0  0  0  0  0  0  0  0  0  0
    2.0930    0.0760   53.8800 C   0  0  0  0  0  0  0  0  0  0  0  0
   -0.7220    0.6220   47.3310 C   0  0  0  0  0  0  0  0  0  0  0  0
    3.3050    1.4370   52.3010 C   0  0  0  0  0  0  0  0  0  0  0  0
    1.1570    2.0220   47.7490 C   0  0  0  0  0  0  0  0  0  0  0  0
    2.8310    6.2890   50.6020 C   0  0  0  0  0  0  0  0  0  0  0  0
    3.1760    5.1200   52.6530 C   0  0  0  0  0  0  0  0  0  0  0  0
    1.1720   -0.2200   52.8960 C   0  0  0  0  0  0  0  0  0  0  0  0
   -0.5690    0.0030   48.5460 C   0  0  0  0  0  0  0  0  0  0  0  0
    3.0670    7.4660   51.2870 C   0  0  0  0  0  0  0  0  0  0  0  0
    3.3270    6.3080   53.3470 C   0  0  0  0  0  0  0  0  0  0  0  0
    2.3710    1.1730   51.3000 C   0  0  0  0  0  0  0  0  0  0  0  0
    1.3330    1.4120   48.9960 C   0  0  0  0  0  0  0  0  0  0  0  0
    2.7550    5.1340   51.3470 C   0  0  0  0  0  0  0  0  0  0  0  0
    1.3300    0.3030   51.6150 C   0  0  0  0  0  0  0  0  0  0  0  0
    0.4300    0.4320   49.3950 C   0  0  0  0  0  0  0  0  0  0  0  0
    3.1980    7.5010   52.6700 C   0  0  0  0  0  0  0  0  0  0  0  0
    2.7050    3.2750   49.8310 C   0  0  0  0  0  0  0  0  0  0  0  0
    2.4790    1.7840   49.8950 C   0  0  0  0  0  0  0  0  0  0  0  0
    5.8360    9.0160   54.1100 C   0  0  0  0  0  0  0  0  0  0  0  0
    2.2240    3.9450   50.8890 N   0  0  0  0  0  0  0  0  0  0  0  0
    4.7600    9.6310   53.3500 N   0  0  0  0  0  0  0  0  0  0  0  0
    3.3040    3.8540   48.9380 O   0  0  0  0  0  0  0  0  0  0  0  0
    2.3270    9.8890   52.7690 O   0  0  0  0  0  0  0  0  0  0  0  0
    2.9080    8.8520   54.8810 O   0  0  0  0  0  0  0  0  0  0  0  0
    0.4460   -0.0890   50.6550 O   0  0  0  0  0  0  0  0  0  0  0  0
    3.2100    9.0620   53.5020 S   0  0  0  0  0  0  0  0  0  0  0  0
  1  3  2  0
  1  5  1  0
  2  4  2  0
  2  6  1  0
  3  9  1  0
  4 10  1  0
  5 13  2  0
  6 14  2  0
  7 11  2  0
  7 15  1  0
  8 12  1  0
  8 15  2  0
  9 16  2  0
 10 17  2  0
 11 18  1  0
 12 18  2  0
 13 16  1  0
 13 20  1  0
 14 17  1  0
 14 20  1  0
 15 22  1  0
 16 27  1  0
 17 27  1  0
 18 28  1  0
 19 20  1  0
 19 22  1  0
 19 24  2  0
 21 23  1  0
 23 28  1  0
 25 28  2  0
 26 28  2  0
M  END
>  <washed_aromatic_smiles>  (761) 
CNS(=O)(=O)c1ccc(cc1)NC(=O)C2c3ccccc3Oc4c2cccc4

>  <name>  (761) 
neg220386

$$$$
neg79560
     RDKit          3D

 31 33  0  0  0  0  0  0  0  0999 V2000
    0.4150    1.2940   45.8300 C   0  0  0  0  0  0  0  0  0  0  0  0
   -0.1620    1.5530   47.0590 C   0  0  0  0  0  0  0  0  0  0  0  0
    1.2340    0.1990   45.6640 C   0  0  0  0  0  0  0  0  0  0  0  0
    2.7570    9.2600   55.6570 C   0  0  0  0  0  0  0  0  0  0  0  0
    1.8770    8.6230   54.7910 C   0  0  0  0  0  0  0  0  0  0  0  0
    2.5550    3.0650   50.0880 C   0  0  0  0  0  0  0  0  0  0  0  0
    2.7850    2.3270   52.3590 C   0  0  0  0  0  0  0  0  0  0  0  0
    2.3050    1.7610   49.7060 C   0  0  0  0  0  0  0  0  0  0  0  0
    2.4560    1.0350   51.9830 C   0  0  0  0  0  0  0  0  0  0  0  0
    0.0530    0.7010   48.1340 C   0  0  0  0  0  0  0  0  0  0  0  0
    1.4930   -0.6460   46.7400 C   0  0  0  0  0  0  0  0  0  0  0  0
    3.9160    9.8490   55.1600 C   0  0  0  0  0  0  0  0  0  0  0  0
    3.3190    9.1520   52.9420 C   0  0  0  0  0  0  0  0  0  0  0  0
    2.7170    3.3750   51.4350 C   0  0  0  0  0  0  0  0  0  0  0  0
    2.1900    8.4940   53.4380 C   0  0  0  0  0  0  0  0  0  0  0  0
    2.1350    0.7510   50.6610 C   0  0  0  0  0  0  0  0  0  0  0  0
    0.9200   -0.3670   47.9760 C   0  0  0  0  0  0  0  0  0  0  0  0
    4.1740    9.8470   53.7860 C   0  0  0  0  0  0  0  0  0  0  0  0
    2.7810    4.7650   51.8600 C   0  0  0  0  0  0  0  0  0  0  0  0
    1.4130    7.6050   52.5860 C   0  0  0  0  0  0  0  0  0  0  0  0
    5.2970   12.8780   54.7140 C   0  0  0  0  0  0  0  0  0  0  0  0
    1.4890   -0.6090   50.4140 C   0  0  0  0  0  0  0  0  0  0  0  0
    1.9370    5.6470   51.2570 N   0  0  0  0  0  0  0  0  0  0  0  0
    2.1060    7.0350   51.5660 N   0  0  0  0  0  0  0  0  0  0  0  0
    5.2950   12.3150   53.3700 N   0  0  0  0  0  0  0  0  0  0  0  0
    3.5360    5.1850   52.7430 O   0  0  0  0  0  0  0  0  0  0  0  0
    0.2410    7.2800   52.7830 O   0  0  0  0  0  0  0  0  0  0  0  0
    6.7210   10.2810   53.8600 O   0  0  0  0  0  0  0  0  0  0  0  0
    5.6750   10.4640   51.7220 O   0  0  0  0  0  0  0  0  0  0  0  0
    1.3100   -1.1000   49.0570 O   0  0  0  0  0  0  0  0  0  0  0  0
    5.6010   10.6990   53.1140 S   0  0  0  0  0  0  0  0  0  0  0  0
  1  2  2  0
  1  3  1  0
  2 10  1  0
  3 11  2  0
  4  5  2  0
  4 12  1  0
  5 15  1  0
  6  8  2  0
  6 14  1  0
  7  9  1  0
  7 14  2  0
  8 16  1  0
  9 16  2  0
 10 17  2  0
 11 17  1  0
 12 18  2  0
 13 15  2  0
 13 18  1  0
 14 19  1  0
 15 20  1  0
 16 22  1  0
 17 30  1  0
 18 31  1  0
 19 23  1  0
 19 26  2  0
 20 24  1  0
 20 27  2  0
 21 25  1  0
 22 30  1  0
 23 24  1  0
 25 31  1  0
 28 31  2  0
 29 31  2  0
M  END
>  <washed_aromatic_smiles>  (762) 
CNS(=O)(=O)c1cccc(c1)C(=O)NNC(=O)c2ccc(cc2)COc3ccccc3

>  <name>  (762) 
neg79560

$$$$
neg3794
     RDKit          3D

 28 30  0  0  0  0  0  0  0  0999 V2000
    1.0740    1.3710   48.6200 C   0  0  0  0  0  0  0  0  0  0  0  0
    1.2720    0.8650   49.9210 C   0  0  0  0  0  0  0  0  0  0  0  0
    5.2860   10.6520   57.7780 C   0  0  0  0  0  0  0  0  0  0  0  0
    1.4310    2.6640   48.3180 C   0  0  0  0  0  0  0  0  0  0  0  0
    1.8070    1.6660   50.9010 C   0  0  0  0  0  0  0  0  0  0  0  0
    2.3780    4.8450   49.0200 C   0  0  0  0  0  0  0  0  0  0  0  0
    4.8770    9.3350   57.6980 C   0  0  0  0  0  0  0  0  0  0  0  0
    2.8220    5.6810   50.0140 C   0  0  0  0  0  0  0  0  0  0  0  0
    5.5190   11.3730   56.6110 C   0  0  0  0  0  0  0  0  0  0  0  0
    2.6250    3.8900   51.6340 C   0  0  0  0  0  0  0  0  0  0  0  0
    5.0470    9.4490   55.2970 C   0  0  0  0  0  0  0  0  0  0  0  0
    1.9920    3.5090   49.3070 C   0  0  0  0  0  0  0  0  0  0  0  0
    2.1550    3.0150   50.6260 C   0  0  0  0  0  0  0  0  0  0  0  0
    4.7440    8.7400   56.4450 C   0  0  0  0  0  0  0  0  0  0  0  0
    2.8820    5.2100   51.3390 C   0  0  0  0  0  0  0  0  0  0  0  0
    5.3070   10.7970   55.3440 C   0  0  0  0  0  0  0  0  0  0  0  0
    4.3030    7.3880   56.3000 C   0  0  0  0  0  0  0  0  0  0  0  0
    2.2330    6.8070   53.0850 C   0  0  0  0  0  0  0  0  0  0  0  0
    4.8390   13.8000   55.1120 C   0  0  0  0  0  0  0  0  0  0  0  0
    2.7170    7.7310   54.1830 C   0  0  0  0  0  0  0  0  0  0  0  0
    3.1920    6.1260   52.3650 N   0  0  0  0  0  0  0  0  0  0  0  0
    4.3350   12.9790   54.0630 N   0  0  0  0  0  0  0  0  0  0  0  0
    4.6250    6.5320   57.1070 O   0  0  0  0  0  0  0  0  0  0  0  0
    1.0500    6.6300   52.8550 O   0  0  0  0  0  0  0  0  0  0  0  0
    6.4610   11.9600   53.2660 O   0  0  0  0  0  0  0  0  0  0  0  0
    4.4000   10.7780   52.8950 O   0  0  0  0  0  0  0  0  0  0  0  0
    3.5390    7.0300   55.2020 O   0  0  0  0  0  0  0  0  0  0  0  0
    5.1750   11.6140   53.7370 S   0  0  0  0  0  0  0  0  0  0  0  0
  1  2  2  0
  1  4  1  0
  2  5  1  0
  3  7  2  0
  3  9  1  0
  4 12  2  0
  5 13  2  0
  6  8  2  0
  6 12  1  0
  7 14  1  0
  8 15  1  0
  9 16  2  0
 10 13  1  0
 10 15  2  0
 11 14  2  0
 11 16  1  0
 12 13  1  0
 14 17  1  0
 15 21  1  0
 16 28  1  0
 17 23  2  0
 17 27  1  0
 18 20  1  0
 18 21  1  0
 18 24  2  0
 19 22  1  0
 20 27  1  0
 22 28  1  0
 25 28  2  0
 26 28  2  0
M  END
>  <washed_aromatic_smiles>  (763) 
CNS(=O)(=O)c1cccc(c1)C(=O)OCC(=O)Nc2ccc3ccccc3c2

>  <name>  (763) 
neg3794

$$$$
neg90042
     RDKit          3D

 28 29  0  0  0  0  0  0  0  0999 V2000
    4.2650    8.1280   54.9830 C   0  0  0  0  0  0  0  0  0  0  0  0
    3.1080    7.5560   54.4610 C   0  0  0  0  0  0  0  0  0  0  0  0
    4.7200    9.3450   54.5020 C   0  0  0  0  0  0  0  0  0  0  0  0
    2.7970    9.4420   53.0230 C   0  0  0  0  0  0  0  0  0  0  0  0
    2.5780    3.4360   51.3960 C   0  0  0  0  0  0  0  0  0  0  0  0
    1.2620    2.8410   49.7320 C   0  0  0  0  0  0  0  0  0  0  0  0
    2.3510    8.2110   53.4930 C   0  0  0  0  0  0  0  0  0  0  0  0
    3.9820    9.9970   53.5170 C   0  0  0  0  0  0  0  0  0  0  0  0
    2.2750    2.1310   51.5700 C   0  0  0  0  0  0  0  0  0  0  0  0
    1.3400    1.7880   50.5960 C   0  0  0  0  0  0  0  0  0  0  0  0
    2.0640    6.2110   51.1510 C   0  0  0  0  0  0  0  0  0  0  0  0
    3.7520   -0.5570   50.8230 C   0  0  0  0  0  0  0  0  0  0  0  0
    0.7550   -0.3760   48.2570 C   0  0  0  0  0  0  0  0  0  0  0  0
    5.6450   11.8620   53.3300 C   0  0  0  0  0  0  0  0  0  0  0  0
    1.0330    7.6110   53.0000 C   0  0  0  0  0  0  0  0  0  0  0  0
    1.8100    5.2770   49.9740 C   0  0  0  0  0  0  0  0  0  0  0  0
    1.9360    3.8790   50.2990 N   0  0  0  0  0  0  0  0  0  0  0  0
    1.0100    6.6930   51.8300 N   0  0  0  0  0  0  0  0  0  0  0  0
    3.1270   -0.3820   52.1010 N   0  0  0  0  0  0  0  0  0  0  0  0
    0.8460   -0.6920   49.6690 N   0  0  0  0  0  0  0  0  0  0  0  0
    3.2080    6.4190   51.5110 O   0  0  0  0  0  0  0  0  0  0  0  0
    4.5210    1.5970   52.5290 O   0  0  0  0  0  0  0  0  0  0  0  0
    2.6150    1.2060   53.9900 O   0  0  0  0  0  0  0  0  0  0  0  0
    0.3860   -0.0770   52.0920 O   0  0  0  0  0  0  0  0  0  0  0  0
   -1.0520    0.7810   50.3740 O   0  0  0  0  0  0  0  0  0  0  0  0
    4.3840   11.2280   53.0360 O   0  0  0  0  0  0  0  0  0  0  0  0
    3.1980    1.1420   52.6920 S   0  0  0  0  0  0  0  0  0  0  0  0
    0.2530    0.3970   50.7590 S   0  0  0  0  0  0  0  0  0  0  0  0
  1  2  2  0
  1  3  1  0
  2  7  1  0
  3  8  2  0
  4  7  2  0
  4  8  1  0
  5  9  2  0
  5 17  1  0
  6 10  2  0
  6 17  1  0
  7 15  1  0
  8 26  1  0
  9 10  1  0
  9 27  1  0
 10 28  1  0
 11 16  1  0
 11 18  1  0
 11 21  2  0
 12 19  1  0
 13 20  1  0
 14 26  1  0
 15 18  1  0
 16 17  1  0
 19 27  1  0
 20 28  1  0
 22 27  2  0
 23 27  2  0
 24 28  2  0
 25 28  2  0
M  END
>  <washed_aromatic_smiles>  (764) 
CNS(=O)(=O)c1cn(cc1S(=O)(=O)NC)CC(=O)NCc2cccc(c2)OC

>  <name>  (764) 
neg90042

$$$$
neg310938
     RDKit          3D

 26 27  0  0  1  0  0  0  0  0999 V2000
    6.0620   11.8220   53.1420 C   0  0  0  0  0  0  0  0  0  0  0  0
    6.6130   10.5390   53.2400 C   0  0  0  0  0  0  0  0  0  0  0  0
    4.6850   11.9710   53.0490 C   0  0  0  0  0  0  0  0  0  0  0  0
    5.8210    9.4060   53.4170 C   0  0  0  0  0  0  0  0  0  0  0  0
    3.9110   10.8120   53.0250 C   0  0  0  0  0  0  0  0  0  0  0  0
    4.6300   11.9680   56.5580 C   0  0  0  0  0  0  0  0  0  0  0  0
    4.8310   10.2900   58.2820 C   0  0  0  0  0  0  0  0  0  0  0  0
    5.3400   12.8640   57.3490 C   0  0  0  0  0  0  0  0  0  0  0  0
    5.5390   11.1920   59.0520 C   0  0  0  0  0  0  0  0  0  0  0  0
    4.4480    9.5470   53.2160 C   0  0  0  0  0  0  0  0  0  0  0  0
    4.3780   10.6770   57.0240 C   0  0  0  0  0  0  0  0  0  0  0  0
    5.7910   12.4880   58.6180 C   0  0  0  0  0  0  0  0  0  0  0  0
    1.1710    7.7240   53.4400 C   0  0  0  0  0  0  0  0  0  0  0  0
    3.6570    8.4210   56.1960 C   0  0  0  0  0  0  0  0  0  0  0  0
    0.4080    5.9450   51.9730 C   0  0  0  0  0  0  0  0  0  0  0  0
    3.5220    8.3810   53.0320 C   0  0  0  0  0  0  0  0  0  0  0  0
    2.3850    8.3970   54.0330 C   0  0  2  0  0  0  0  0  0  0  0  0
    6.5350   15.0560   58.9870 N   0  0  0  0  0  0  0  0  0  0  0  0
    3.6490    9.8070   56.1870 N   0  0  0  0  0  0  0  0  0  0  0  0
    2.8770    7.8020   55.2600 N   0  0  0  0  0  0  0  0  0  0  0  0
    0.0690    8.2670   53.3900 O   0  0  0  0  0  0  0  0  0  0  0  0
    4.3170    7.7440   56.9810 O   0  0  0  0  0  0  0  0  0  0  0  0
    6.0070   13.6670   60.9570 O   0  0  0  0  0  0  0  0  0  0  0  0
    8.0450   13.2150   59.7370 O   0  0  0  0  0  0  0  0  0  0  0  0
    1.3910    6.5540   52.8180 O   0  0  0  0  0  0  0  0  0  0  0  0
    6.6770   13.6100   59.7070 S   0  0  0  0  0  0  0  0  0  0  0  0
  1  2  2  0
  1  3  1  0
  2  4  1  0
  3  5  2  0
  4 10  2  0
  5 10  1  0
  6  8  2  0
  6 11  1  0
  7  9  1  0
  7 11  2  0
  8 12  1  0
  9 12  2  0
 10 16  1  0
 11 19  1  0
 12 26  1  0
 13 17  1  0
 13 21  2  0
 13 25  1  0
 14 19  1  0
 14 20  1  0
 14 22  2  0
 15 25  1  0
 17 16  1  6
 17 20  1  0
 18 26  1  0
 23 26  2  0
 24 26  2  0
M  END
>  <washed_aromatic_smiles>  (765) 
COC(=O)[C@H](Cc1ccccc1)NC(=O)Nc2ccc(cc2)S(=O)(=O)N

>  <name>  (765) 
neg310938

$$$$
neg323488
     RDKit          3D

 25 26  0  0  0  0  0  0  0  0999 V2000
    3.5150    6.6060   53.2740 C   0  0  0  0  0  0  0  0  0  0  0  0
    1.7020    7.9680   52.4500 C   0  0  0  0  0  0  0  0  0  0  0  0
    4.1880    7.7530   53.6710 C   0  0  0  0  0  0  0  0  0  0  0  0
    2.4200    9.1110   52.7850 C   0  0  0  0  0  0  0  0  0  0  0  0
    2.3120    6.7290   52.5920 C   0  0  0  0  0  0  0  0  0  0  0  0
    3.6950    9.0120   53.3520 C   0  0  0  0  0  0  0  0  0  0  0  0
    2.4860    4.9970   50.9050 C   0  0  0  0  0  0  0  0  0  0  0  0
    1.1620    2.3250   48.3780 C   0  0  0  0  0  0  0  0  0  0  0  0
    4.3380    9.4580   58.2040 C   0  0  0  0  0  0  0  0  0  0  0  0
    5.5930   10.2630   58.0600 C   0  0  0  0  0  0  0  0  0  0  0  0
    3.7000    8.9730   56.9240 C   0  0  0  0  0  0  0  0  0  0  0  0
    5.3390   11.6810   57.5070 C   0  0  0  0  0  0  0  0  0  0  0  0
    3.3700   10.1480   56.0300 C   0  0  0  0  0  0  0  0  0  0  0  0
    5.2200   11.7770   55.9800 C   0  0  0  0  0  0  0  0  0  0  0  0
    0.3530    1.0680   46.4600 C   0  0  0  0  0  0  0  0  0  0  0  0
    2.0040    3.6580   50.4090 C   0  0  0  0  0  0  0  0  0  0  0  0
    1.7230    3.6450   48.8980 C   0  0  0  0  0  0  0  0  0  0  0  0
    4.5710   10.6350   55.3390 N   0  0  0  0  0  0  0  0  0  0  0  0
    1.7920    5.6000   51.9340 N   0  0  0  0  0  0  0  0  0  0  0  0
    3.4740    5.5260   50.4320 O   0  0  0  0  0  0  0  0  0  0  0  0
    1.0320    1.3370   49.1030 O   0  0  0  0  0  0  0  0  0  0  0  0
    6.0920   10.1020   53.4110 O   0  0  0  0  0  0  0  0  0  0  0  0
    4.2200   11.5830   53.0420 O   0  0  0  0  0  0  0  0  0  0  0  0
    0.8360    2.2760   47.0800 O   0  0  0  0  0  0  0  0  0  0  0  0
    4.7360   10.4330   53.7050 S   0  0  0  0  0  0  0  0  0  0  0  0
  1  3  2  0
  1  5  1  0
  2  4  1  0
  2  5  2  0
  3  6  1  0
  4  6  2  0
  5 19  1  0
  6 25  1  0
  7 16  1  0
  7 19  1  0
  7 20  2  0
  8 17  1  0
  8 21  2  0
  8 24  1  0
  9 10  1  0
  9 11  1  0
 10 12  1  0
 11 13  1  0
 12 14  1  0
 13 18  1  0
 14 18  1  0
 15 24  1  0
 16 17  1  0
 18 25  1  0
 22 25  2  0
 23 25  2  0
M  END
>  <washed_aromatic_smiles>  (766) 
COC(=O)CCC(=O)Nc1ccc(cc1)S(=O)(=O)N2CCCCCC2

>  <name>  (766) 
neg323488

$$$$
neg314645
     RDKit          3D

 30 30  0  0  0  0  0  0  0  0999 V2000
    1.5290    5.5340   51.3930 C   0  0  0  0  0  0  0  0  0  0  0  0
    4.0850    8.3850   57.2020 C   0  0  0  0  0  0  0  0  0  0  0  0
    1.6250    2.3750   48.8660 C   0  0  0  0  0  0  0  0  0  0  0  0
    5.6230   10.5440   58.6710 C   0  0  0  0  0  0  0  0  0  0  0  0
    2.7570    7.5550   51.9330 C   0  0  0  0  0  0  0  0  0  0  0  0
    0.3460    7.4650   52.4180 C   0  0  0  0  0  0  0  0  0  0  0  0
    5.5910    8.9930   55.3370 C   0  0  0  0  0  0  0  0  0  0  0  0
    3.2320    9.7270   55.4720 C   0  0  0  0  0  0  0  0  0  0  0  0
    3.6490    7.2810   53.1380 C   0  0  0  0  0  0  0  0  0  0  0  0
    0.4170    7.9730   53.8580 C   0  0  0  0  0  0  0  0  0  0  0  0
    5.6480    8.4300   53.9420 C   0  0  0  0  0  0  0  0  0  0  0  0
    1.9580    8.9010   55.3160 C   0  0  0  0  0  0  0  0  0  0  0  0
    1.2050    0.6000   50.4930 C   0  0  0  0  0  0  0  0  0  0  0  0
    5.1640   12.4170   57.0830 C   0  0  0  0  0  0  0  0  0  0  0  0
    2.6620    4.9200   50.5530 C   0  0  0  0  0  0  0  0  0  0  0  0
    4.9730    7.3260   57.8430 C   0  0  0  0  0  0  0  0  0  0  0  0
    2.5170    3.5080   48.3640 C   0  0  0  0  0  0  0  0  0  0  0  0
    6.3400    9.1660   58.7750 C   0  0  0  0  0  0  0  0  0  0  0  0
    2.2610    4.8480   49.0640 C   0  0  0  0  0  0  0  0  0  0  0  0
    5.5720    7.8970   59.1230 C   0  0  0  0  0  0  0  0  0  0  0  0
    1.5600    6.7710   51.9180 N   0  0  0  0  0  0  0  0  0  0  0  0
    4.3000    8.8810   55.9880 N   0  0  0  0  0  0  0  0  0  0  0  0
    0.5490    4.8410   51.5410 O   0  0  0  0  0  0  0  0  0  0  0  0
    3.2110    8.9040   57.8730 O   0  0  0  0  0  0  0  0  0  0  0  0
    0.5960    2.0790   48.2580 O   0  0  0  0  0  0  0  0  0  0  0  0
    5.6990   11.3500   59.5880 O   0  0  0  0  0  0  0  0  0  0  0  0
    4.3840    8.4850   53.3250 O   0  0  0  0  0  0  0  0  0  0  0  0
    1.3910    8.9750   54.0330 O   0  0  0  0  0  0  0  0  0  0  0  0
    2.0110    1.6780   49.9510 O   0  0  0  0  0  0  0  0  0  0  0  0
    5.4020   11.0330   57.4430 O   0  0  0  0  0  0  0  0  0  0  0  0
  1 15  1  0
  1 21  1  0
  1 23  2  0
  2 16  1  0
  2 22  1  0
  2 24  2  0
  3 17  1  0
  3 25  2  0
  3 29  1  0
  4 18  1  0
  4 26  2  0
  4 30  1  0
  5  9  1  0
  5 21  1  0
  6 10  1  0
  6 21  1  0
  7 11  1  0
  7 22  1  0
  8 12  1  0
  8 22  1  0
  9 27  1  0
 10 28  1  0
 11 27  1  0
 12 28  1  0
 13 29  1  0
 14 30  1  0
 15 19  1  0
 16 20  1  0
 17 19  1  0
 18 20  1  0
M  END
>  <washed_aromatic_smiles>  (767) 
COC(=O)CCCC(=O)N1CCOCCN(CCOCC1)C(=O)CCCC(=O)OC

>  <name>  (767) 
neg314645

$$$$
neg298017
     RDKit          3D

 31 32  0  0  0  0  0  0  0  0999 V2000
    2.8920    6.1480   51.1620 C   0  0  0  0  0  0  0  0  0  0  0  0
    3.6080    5.8170   53.4060 C   0  0  0  0  0  0  0  0  0  0  0  0
    3.7010    1.7170   51.6450 C   0  0  0  0  0  0  0  0  0  0  0  0
    2.2830    2.9540   50.0970 C   0  0  0  0  0  0  0  0  0  0  0  0
    3.0500    7.4950   51.3980 C   0  0  0  0  0  0  0  0  0  0  0  0
    3.6450    7.1360   53.6800 C   0  0  0  0  0  0  0  0  0  0  0  0
    3.4290    0.5550   51.0070 C   0  0  0  0  0  0  0  0  0  0  0  0
    2.0100    1.7760   49.4690 C   0  0  0  0  0  0  0  0  0  0  0  0
    3.1100    5.3080   52.2280 C   0  0  0  0  0  0  0  0  0  0  0  0
    3.0100    2.8630   51.2580 C   0  0  0  0  0  0  0  0  0  0  0  0
    3.2560    7.9790   52.6870 C   0  0  0  0  0  0  0  0  0  0  0  0
    2.4220    0.5980   50.0720 C   0  0  0  0  0  0  0  0  0  0  0  0
    5.3480   10.8470   55.1260 C   0  0  0  0  0  0  0  0  0  0  0  0
   -1.4510   -0.1920   48.7500 C   0  0  0  0  0  0  0  0  0  0  0  0
    5.2450   12.8930   56.4540 C   0  0  0  0  0  0  0  0  0  0  0  0
   -0.0380    1.0140   46.8800 C   0  0  0  0  0  0  0  0  0  0  0  0
    2.8820    3.8550   52.3030 C   0  0  0  0  0  0  0  0  0  0  0  0
    5.4630   10.2560   53.7370 C   0  0  0  0  0  0  0  0  0  0  0  0
   -0.8510    0.4990   49.9780 C   0  0  0  0  0  0  0  0  0  0  0  0
    4.2600   10.4640   52.9450 N   0  0  0  0  0  0  0  0  0  0  0  0
    0.0930   -0.2290   50.7290 N   0  0  0  0  0  0  0  0  0  0  0  0
    5.1870   10.1670   56.1410 O   0  0  0  0  0  0  0  0  0  0  0  0
   -2.5300   -0.7790   48.8120 O   0  0  0  0  0  0  0  0  0  0  0  0
    1.8030   10.0060   52.4490 O   0  0  0  0  0  0  0  0  0  0  0  0
    2.6670    9.4720   54.6480 O   0  0  0  0  0  0  0  0  0  0  0  0
    1.1950   -1.2070   48.6750 O   0  0  0  0  0  0  0  0  0  0  0  0
    2.0430   -1.7630   50.8810 O   0  0  0  0  0  0  0  0  0  0  0  0
    5.3940   12.1900   55.2010 O   0  0  0  0  0  0  0  0  0  0  0  0
   -1.0410    0.1870   47.5210 O   0  0  0  0  0  0  0  0  0  0  0  0
    2.8920    9.5700   53.2410 S   0  0  0  0  0  0  0  0  0  0  0  0
    1.4370   -0.8220   50.0200 S   0  0  0  0  0  0  0  0  0  0  0  0
  1  5  2  0
  1  9  1  0
  2  6  1  0
  2  9  2  0
  3  7  2  0
  3 10  1  0
  4  8  1  0
  4 10  2  0
  5 11  1  0
  6 11  2  0
  7 12  1  0
  8 12  2  0
  9 17  1  0
 10 17  1  0
 11 30  1  0
 12 31  1  0
 13 18  1  0
 13 22  2  0
 13 28  1  0
 14 19  1  0
 14 23  2  0
 14 29  1  0
 15 28  1  0
 16 29  1  0
 18 20  1  0
 19 21  1  0
 20 30  1  0
 21 31  1  0
 24 30  2  0
 25 30  2  0
 26 31  2  0
 27 31  2  0
M  END
>  <washed_aromatic_smiles>  (768) 
COC(=O)CNS(=O)(=O)c1ccc(cc1)Cc2ccc(cc2)S(=O)(=O)NCC(=O)OC

>  <name>  (768) 
neg298017

$$$$
neg192490
     RDKit          3D

 27 29  0  0  0  0  0  0  0  0999 V2000
    2.1890   -0.1870   54.2790 C   0  0  0  0  0  0  0  0  0  0  0  0
   -0.3120    0.6790   47.4100 C   0  0  0  0  0  0  0  0  0  0  0  0
    3.1930    0.7150   53.9990 C   0  0  0  0  0  0  0  0  0  0  0  0
    1.1420   -0.3200   53.3910 C   0  0  0  0  0  0  0  0  0  0  0  0
    0.3040    1.9050   47.2810 C   0  0  0  0  0  0  0  0  0  0  0  0
    0.0730   -0.2030   48.4040 C   0  0  0  0  0  0  0  0  0  0  0  0
    3.2150    1.3800   52.7770 C   0  0  0  0  0  0  0  0  0  0  0  0
    1.0630    0.4820   52.2590 C   0  0  0  0  0  0  0  0  0  0  0  0
    1.2180    2.3100   48.2330 C   0  0  0  0  0  0  0  0  0  0  0  0
    1.0010    0.1950   49.3450 C   0  0  0  0  0  0  0  0  0  0  0  0
    1.5730    7.6170   52.6740 C   0  0  0  0  0  0  0  0  0  0  0  0
    3.7920    7.1650   53.4880 C   0  0  0  0  0  0  0  0  0  0  0  0
    1.4990    6.3410   52.1300 C   0  0  0  0  0  0  0  0  0  0  0  0
    3.7360    5.9050   52.9410 C   0  0  0  0  0  0  0  0  0  0  0  0
    2.7270    8.0300   53.3400 C   0  0  0  0  0  0  0  0  0  0  0  0
    2.1440    1.2890   51.8860 C   0  0  0  0  0  0  0  0  0  0  0  0
    1.4730    1.5100   49.3540 C   0  0  0  0  0  0  0  0  0  0  0  0
    2.6040    5.4930   52.2580 C   0  0  0  0  0  0  0  0  0  0  0  0
    1.9770    3.5960   50.7810 C   0  0  0  0  0  0  0  0  0  0  0  0
    4.1810    9.8550   54.4560 C   0  0  0  0  0  0  0  0  0  0  0  0
    3.6290    8.9220   56.6890 C   0  0  0  0  0  0  0  0  0  0  0  0
    2.8400    9.4170   53.8730 C   0  0  0  0  0  0  0  0  0  0  0  0
    2.2200    2.0890   50.5610 C   0  0  0  0  0  0  0  0  0  0  0  0
    2.6650    4.1660   51.8030 N   0  0  0  0  0  0  0  0  0  0  0  0
    1.2520    4.3090   50.1190 O   0  0  0  0  0  0  0  0  0  0  0  0
    5.0300   10.4430   53.7870 O   0  0  0  0  0  0  0  0  0  0  0  0
    4.4910    9.5990   55.7460 O   0  0  0  0  0  0  0  0  0  0  0  0
  1  3  2  0
  1  4  1  0
  2  5  2  0
  2  6  1  0
  3  7  1  0
  4  8  2  0
  5  9  1  0
  6 10  2  0
  7 16  2  0
  8 16  1  0
  9 17  2  0
 10 17  1  0
 11 13  2  0
 11 15  1  0
 12 14  1  0
 12 15  2  0
 13 18  1  0
 14 18  2  0
 15 22  1  0
 16 23  1  0
 17 23  1  0
 18 24  1  0
 19 23  1  0
 19 24  1  0
 19 25  2  0
 20 22  1  0
 20 26  2  0
 20 27  1  0
 21 27  1  0
M  END
>  <washed_aromatic_smiles>  (769) 
COC(=O)Cc1ccc(cc1)NC(=O)C(c2ccccc2)c3ccccc3

>  <name>  (769) 
neg192490

$$$$
neg177133
     RDKit          3D

 25 27  0  0  0  0  0  0  0  0999 V2000
    0.9430   -0.3660   49.0770 C   0  0  0  0  0  0  0  0  0  0  0  0
    1.6250   -0.6560   50.2650 C   0  0  0  0  0  0  0  0  0  0  0  0
    0.8700    0.9420   48.6130 C   0  0  0  0  0  0  0  0  0  0  0  0
    2.1960    0.3580   51.0150 C   0  0  0  0  0  0  0  0  0  0  0  0
    2.0050    8.6390   55.2210 C   0  0  0  0  0  0  0  0  0  0  0  0
    4.2560    7.8980   54.8050 C   0  0  0  0  0  0  0  0  0  0  0  0
    1.5810    8.0160   54.0470 C   0  0  0  0  0  0  0  0  0  0  0  0
    3.8060    7.2090   53.6920 C   0  0  0  0  0  0  0  0  0  0  0  0
    1.7690    4.2540   49.6590 C   0  0  0  0  0  0  0  0  0  0  0  0
    1.4570    1.9780   49.3470 C   0  0  0  0  0  0  0  0  0  0  0  0
    2.0880    1.6730   50.5630 C   0  0  0  0  0  0  0  0  0  0  0  0
    3.3470    8.5760   55.5940 C   0  0  0  0  0  0  0  0  0  0  0  0
    2.4880    7.2860   53.2700 C   0  0  0  0  0  0  0  0  0  0  0  0
    2.2800    4.0250   51.0130 C   0  0  0  0  0  0  0  0  0  0  0  0
    3.6590   10.3580   57.2940 C   0  0  0  0  0  0  0  0  0  0  0  0
    5.4600    9.8450   58.9140 C   0  0  0  0  0  0  0  0  0  0  0  0
    1.3950    3.3080   48.8840 N   0  0  0  0  0  0  0  0  0  0  0  0
    2.5770    2.7130   51.3500 N   0  0  0  0  0  0  0  0  0  0  0  0
    3.8580    9.0930   56.7980 N   0  0  0  0  0  0  0  0  0  0  0  0
    2.4580    4.8910   51.9420 N   0  0  0  0  0  0  0  0  0  0  0  0
    2.8670   11.1500   56.8190 O   0  0  0  0  0  0  0  0  0  0  0  0
    2.9080    6.9960   50.7130 O   0  0  0  0  0  0  0  0  0  0  0  0
    0.6540    6.5770   51.5390 O   0  0  0  0  0  0  0  0  0  0  0  0
    4.4380   10.7020   58.3470 O   0  0  0  0  0  0  0  0  0  0  0  0
    2.0650    6.4670   51.7310 S   0  0  0  0  0  0  0  0  0  0  0  0
  1  2  2  0
  1  3  1  0
  2  4  1  0
  3 10  2  0
  4 11  2  0
  5  7  2  0
  5 12  1  0
  6  8  1  0
  6 12  2  0
  7 13  1  0
  8 13  2  0
  9 14  1  0
  9 17  2  0
 10 11  1  0
 10 17  1  0
 11 18  1  0
 12 19  1  0
 13 25  1  0
 14 18  1  0
 14 20  2  0
 15 19  1  0
 15 21  2  0
 15 24  1  0
 16 24  1  0
 20 25  1  0
 22 25  2  0
 23 25  2  0
M  END
>  <washed_aromatic_smiles>  (770) 
COC(=O)Nc1ccc(cc1)S(=O)(=O)Nc2cnc3ccccc3n2

>  <name>  (770) 
neg177133

$$$$
neg115748
     RDKit          3D

 25 27  0  0  0  0  0  0  0  0999 V2000
    0.7650    6.7690   52.1000 C   0  0  0  0  0  0  0  0  0  0  0  0
    2.9090    5.7020   52.3270 C   0  0  0  0  0  0  0  0  0  0  0  0
    1.2070    7.8270   52.8990 C   0  0  0  0  0  0  0  0  0  0  0  0
    3.3510    6.7520   53.1100 C   0  0  0  0  0  0  0  0  0  0  0  0
    4.6850    8.8960   57.0080 C   0  0  0  0  0  0  0  0  0  0  0  0
    4.8730    9.2480   58.3100 C   0  0  0  0  0  0  0  0  0  0  0  0
    1.6240    5.6990   51.7990 C   0  0  0  0  0  0  0  0  0  0  0  0
    2.5140    7.8270   53.4030 C   0  0  0  0  0  0  0  0  0  0  0  0
    4.6540    9.9840   56.1190 C   0  0  0  0  0  0  0  0  0  0  0  0
    4.8290   11.2040   56.7740 C   0  0  0  0  0  0  0  0  0  0  0  0
    4.8790   12.5630   56.2390 C   0  0  0  0  0  0  0  0  0  0  0  0
    2.5670    3.5650   48.4740 C   0  0  0  0  0  0  0  0  0  0  0  0
    2.1300    5.0080   48.6760 C   0  0  0  0  0  0  0  0  0  0  0  0
    2.8220    3.0460   49.8840 C   0  0  0  0  0  0  0  0  0  0  0  0
    0.9220    5.0160   49.6000 C   0  0  0  0  0  0  0  0  0  0  0  0
    1.7750    3.2680   50.9530 C   0  0  0  0  0  0  0  0  0  0  0  0
    6.1070   13.8810   58.1700 C   0  0  0  0  0  0  0  0  0  0  0  0
    1.1900    4.6230   50.9650 N   0  0  0  0  0  0  0  0  0  0  0  0
    2.9460    8.8840   54.2610 N   0  0  0  0  0  0  0  0  0  0  0  0
    4.4100   12.8900   55.1660 O   0  0  0  0  0  0  0  0  0  0  0  0
    5.5010    8.5910   54.1180 O   0  0  0  0  0  0  0  0  0  0  0  0
    4.5530   10.7290   53.5700 O   0  0  0  0  0  0  0  0  0  0  0  0
    5.4370   13.6080   56.9100 O   0  0  0  0  0  0  0  0  0  0  0  0
    4.9950   10.9460   58.4850 S   0  0  0  0  0  0  0  0  0  0  0  0
    4.4990    9.5640   54.3770 S   0  0  0  0  0  0  0  0  0  0  0  0
  1  3  2  0
  1  7  1  0
  2  4  1  0
  2  7  2  0
  3  8  1  0
  4  8  2  0
  5  6  2  0
  5  9  1  0
  6 24  1  0
  7 18  1  0
  8 19  1  0
  9 10  2  0
  9 25  1  0
 10 11  1  0
 10 24  1  0
 11 20  2  0
 11 23  1  0
 12 13  1  0
 12 14  1  0
 13 15  1  0
 14 16  1  0
 15 18  1  0
 16 18  1  0
 17 23  1  0
 19 25  1  0
 21 25  2  0
 22 25  2  0
M  END
>  <washed_aromatic_smiles>  (771) 
COC(=O)c1c(ccs1)S(=O)(=O)Nc2ccc(cc2)N3CCCCC3

>  <name>  (771) 
neg115748

$$$$
neg86325
     RDKit          3D

 28 30  0  0  0  0  0  0  0  0999 V2000
    0.6990    2.1350   47.5350 C   0  0  0  0  0  0  0  0  0  0  0  0
    0.7430    0.8720   48.1480 C   0  0  0  0  0  0  0  0  0  0  0  0
    1.1790    3.2680   48.1970 C   0  0  0  0  0  0  0  0  0  0  0  0
    1.2850    0.7210   49.4250 C   0  0  0  0  0  0  0  0  0  0  0  0
    3.7810    9.8050   55.0480 C   0  0  0  0  0  0  0  0  0  0  0  0
    2.2220    8.1770   54.1430 C   0  0  0  0  0  0  0  0  0  0  0  0
    3.8980    9.1940   52.7380 C   0  0  0  0  0  0  0  0  0  0  0  0
    2.6470    8.9960   55.1990 C   0  0  0  0  0  0  0  0  0  0  0  0
    4.3950    9.9460   53.8040 C   0  0  0  0  0  0  0  0  0  0  0  0
    1.6780    3.1030   49.4860 C   0  0  0  0  0  0  0  0  0  0  0  0
    2.8980    8.2360   52.9240 C   0  0  0  0  0  0  0  0  0  0  0  0
    1.7660    1.8570   50.0630 C   0  0  0  0  0  0  0  0  0  0  0  0
    2.5490    3.2990   51.5110 C   0  0  0  0  0  0  0  0  0  0  0  0
    1.9390    9.0190   56.4630 C   0  0  0  0  0  0  0  0  0  0  0  0
    5.5750   10.7940   53.6080 C   0  0  0  0  0  0  0  0  0  0  0  0
    1.7770    6.2990   51.6400 C   0  0  0  0  0  0  0  0  0  0  0  0
   -0.3650    8.6020   57.5090 C   0  0  0  0  0  0  0  0  0  0  0  0
    4.7280   12.8860   54.7650 C   0  0  0  0  0  0  0  0  0  0  0  0
    1.9330    5.4740   50.3560 C   0  0  0  0  0  0  0  0  0  0  0  0
    2.1130    4.0150   50.4320 N   0  0  0  0  0  0  0  0  0  0  0  0
    2.6950    7.3200   51.8330 N   0  0  0  0  0  0  0  0  0  0  0  0
    3.0000    3.7650   52.5420 O   0  0  0  0  0  0  0  0  0  0  0  0
    2.5080    9.1790   57.5210 O   0  0  0  0  0  0  0  0  0  0  0  0
    6.5230   10.4390   52.9370 O   0  0  0  0  0  0  0  0  0  0  0  0
    0.8590    6.1210   52.4150 O   0  0  0  0  0  0  0  0  0  0  0  0
    2.3460    1.9620   51.2940 O   0  0  0  0  0  0  0  0  0  0  0  0
    0.5830    8.8190   56.4350 O   0  0  0  0  0  0  0  0  0  0  0  0
    5.7150   12.0280   54.1580 O   0  0  0  0  0  0  0  0  0  0  0  0
  1  2  2  0
  1  3  1  0
  2  4  1  0
  3 10  2  0
  4 12  2  0
  5  8  2  0
  5  9  1  0
  6  8  1  0
  6 11  2  0
  7  9  2  0
  7 11  1  0
  8 14  1  0
  9 15  1  0
 10 12  1  0
 10 20  1  0
 11 21  1  0
 12 26  1  0
 13 20  1  0
 13 22  2  0
 13 26  1  0
 14 23  2  0
 14 27  1  0
 15 24  2  0
 15 28  1  0
 16 19  1  0
 16 21  1  0
 16 25  2  0
 17 27  1  0
 18 28  1  0
 19 20  1  0
M  END
>  <washed_aromatic_smiles>  (772) 
COC(=O)c1cc(cc(c1)NC(=O)Cn2c3ccccc3oc2=O)C(=O)OC

>  <name>  (772) 
neg86325

$$$$
neg192532
     RDKit          3D

 28 29  0  0  0  0  0  0  0  0999 V2000
    2.1150    3.0660   50.2350 C   0  0  0  0  0  0  0  0  0  0  0  0
    1.8560    5.4050   50.8390 C   0  0  0  0  0  0  0  0  0  0  0  0
    2.8420    3.8650   52.3600 C   0  0  0  0  0  0  0  0  0  0  0  0
    1.8560    4.3840   49.8840 C   0  0  0  0  0  0  0  0  0  0  0  0
    2.5900    2.7890   51.5070 C   0  0  0  0  0  0  0  0  0  0  0  0
    3.1260    8.4610   53.9330 C   0  0  0  0  0  0  0  0  0  0  0  0
    2.4980    5.1770   52.0390 C   0  0  0  0  0  0  0  0  0  0  0  0
    4.2440    9.2960   54.1430 C   0  0  0  0  0  0  0  0  0  0  0  0
    2.1210    8.5120   54.9070 C   0  0  0  0  0  0  0  0  0  0  0  0
    4.3990   10.0290   55.3170 C   0  0  0  0  0  0  0  0  0  0  0  0
    2.3060    9.1810   56.1170 C   0  0  0  0  0  0  0  0  0  0  0  0
    3.4530    9.9370   56.3280 C   0  0  0  0  0  0  0  0  0  0  0  0
    2.9780    7.5960   52.7720 C   0  0  0  0  0  0  0  0  0  0  0  0
    1.8540    4.6910   48.4860 C   0  0  0  0  0  0  0  0  0  0  0  0
    2.8000    1.4170   51.9510 C   0  0  0  0  0  0  0  0  0  0  0  0
    3.7470    6.2550   48.8950 C   0  0  0  0  0  0  0  0  0  0  0  0
    2.4150   -0.9490   51.5240 C   0  0  0  0  0  0  0  0  0  0  0  0
    2.8140    6.2310   52.9730 N   0  0  0  0  0  0  0  0  0  0  0  0
    3.0180    8.0270   51.6460 O   0  0  0  0  0  0  0  0  0  0  0  0
    1.2030    4.1010   47.6480 O   0  0  0  0  0  0  0  0  0  0  0  0
    3.2990    1.1140   53.0230 O   0  0  0  0  0  0  0  0  0  0  0  0
    2.7910    5.5580   48.0850 O   0  0  0  0  0  0  0  0  0  0  0  0
    2.3670    0.4320   51.1350 O   0  0  0  0  0  0  0  0  0  0  0  0
    5.1980    9.4280   53.2040 F   0  0  0  0  0  0  0  0  0  0  0  0
    0.9210    7.9390   54.6280 F   0  0  0  0  0  0  0  0  0  0  0  0
    5.4460   10.8520   55.4690 F   0  0  0  0  0  0  0  0  0  0  0  0
    1.3700    9.1170   57.0720 F   0  0  0  0  0  0  0  0  0  0  0  0
    3.6440   10.5960   57.4910 F   0  0  0  0  0  0  0  0  0  0  0  0
  1  4  2  0
  1  5  1  0
  2  4  1  0
  2  7  2  0
  3  5  2  0
  3  7  1  0
  4 14  1  0
  5 15  1  0
  6  8  2  0
  6  9  1  0
  6 13  1  0
  7 18  1  0
  8 10  1  0
  8 24  1  0
  9 11  2  0
  9 25  1  0
 10 12  2  0
 10 26  1  0
 11 12  1  0
 11 27  1  0
 12 28  1  0
 13 18  1  0
 13 19  2  0
 14 20  2  0
 14 22  1  0
 15 21  2  0
 15 23  1  0
 16 22  1  0
 17 23  1  0
M  END
>  <washed_aromatic_smiles>  (773) 
COC(=O)c1cc(cc(c1)NC(=O)c2c(c(c(c(c2F)F)F)F)F)C(=O)OC

>  <name>  (773) 
neg192532

$$$$
neg277912
     RDKit          3D

 26 27  0  0  0  0  0  0  0  0999 V2000
    1.9860    2.3300   49.9250 C   0  0  0  0  0  0  0  0  0  0  0  0
    2.1440    4.7000   50.3860 C   0  0  0  0  0  0  0  0  0  0  0  0
    2.8140    3.0900   52.0460 C   0  0  0  0  0  0  0  0  0  0  0  0
    3.9710    8.3860   55.4620 C   0  0  0  0  0  0  0  0  0  0  0  0
    2.7720    8.9540   55.8770 C   0  0  0  0  0  0  0  0  0  0  0  0
    1.8850    3.6590   49.5130 C   0  0  0  0  0  0  0  0  0  0  0  0
    2.4280    2.0340   51.2140 C   0  0  0  0  0  0  0  0  0  0  0  0
    2.6780    4.4180   51.6330 C   0  0  0  0  0  0  0  0  0  0  0  0
    2.9460    7.5940   53.5820 C   0  0  0  0  0  0  0  0  0  0  0  0
    1.7430    8.2060   53.9700 C   0  0  0  0  0  0  0  0  0  0  0  0
    1.6780    3.9980   48.1360 C   0  0  0  0  0  0  0  0  0  0  0  0
    2.4590    0.6560   51.6900 C   0  0  0  0  0  0  0  0  0  0  0  0
    3.0040    6.8070   52.3680 C   0  0  0  0  0  0  0  0  0  0  0  0
    0.5630    8.1470   53.1090 C   0  0  0  0  0  0  0  0  0  0  0  0
    3.8900    3.7500   47.5100 C   0  0  0  0  0  0  0  0  0  0  0  0
    2.5410   -0.7660   53.6810 C   0  0  0  0  0  0  0  0  0  0  0  0
    4.0530    7.7090   54.3300 N   0  0  0  0  0  0  0  0  0  0  0  0
    1.6780    8.8540   55.1420 N   0  0  0  0  0  0  0  0  0  0  0  0
    3.1090    5.4360   52.5210 N   0  0  0  0  0  0  0  0  0  0  0  0
    0.9850    4.8890   47.7190 O   0  0  0  0  0  0  0  0  0  0  0  0
    2.1970   -0.3170   50.9990 O   0  0  0  0  0  0  0  0  0  0  0  0
    2.9410    7.3130   51.2610 O   0  0  0  0  0  0  0  0  0  0  0  0
   -0.0080    9.2180   52.7730 O   0  0  0  0  0  0  0  0  0  0  0  0
    0.1500    7.0280   52.6940 O   0  0  0  0  0  0  0  0  0  0  0  0
    2.5040    3.4310   47.2910 O   0  0  0  0  0  0  0  0  0  0  0  0
    2.7660    0.4710   52.9930 O   0  0  0  0  0  0  0  0  0  0  0  0
  1  6  2  0
  1  7  1  0
  2  6  1  0
  2  8  2  0
  3  7  2  0
  3  8  1  0
  4  5  2  0
  4 17  1  0
  5 18  1  0
  6 11  1  0
  7 12  1  0
  8 19  1  0
  9 10  1  0
  9 13  1  0
  9 17  2  0
 10 14  1  0
 10 18  2  0
 11 20  2  0
 11 25  1  0
 12 21  2  0
 12 26  1  0
 13 19  1  0
 13 22  2  0
 14 23  1  0
 14 24  2  0
 15 25  1  0
 16 26  1  0
M  CHG  1  23  -1
M  END
>  <washed_aromatic_smiles>  (774) 
COC(=O)c1cc(cc(c1)NC(=O)c2c(nccn2)C(=O)O)C(=O)OC

>  <name>  (774) 
neg277912

$$$$
neg204420
     RDKit          3D

 26 28  0  0  0  0  0  0  0  0999 V2000
    3.6580    8.7550   56.5840 C   0  0  0  0  0  0  0  0  0  0  0  0
    2.3630    8.9180   56.1110 C   0  0  0  0  0  0  0  0  0  0  0  0
    4.6720    8.4010   55.7050 C   0  0  0  0  0  0  0  0  0  0  0  0
    2.0780    8.7190   54.7610 C   0  0  0  0  0  0  0  0  0  0  0  0
    4.3930    8.2300   54.3520 C   0  0  0  0  0  0  0  0  0  0  0  0
    1.2370    3.1990   48.8080 C   0  0  0  0  0  0  0  0  0  0  0  0
    0.7740    2.0480   48.2020 C   0  0  0  0  0  0  0  0  0  0  0  0
    1.3020    0.7720   50.2230 C   0  0  0  0  0  0  0  0  0  0  0  0
    1.8010    1.9120   50.8410 C   0  0  0  0  0  0  0  0  0  0  0  0
    3.0970    8.4000   53.8660 C   0  0  0  0  0  0  0  0  0  0  0  0
    1.6940    3.1510   50.1450 C   0  0  0  0  0  0  0  0  0  0  0  0
    0.7950    0.8710   48.9450 C   0  0  0  0  0  0  0  0  0  0  0  0
    2.4100    1.7550   52.1480 C   0  0  0  0  0  0  0  0  0  0  0  0
    0.8750    5.1670   51.3070 C   0  0  0  0  0  0  0  0  0  0  0  0
    2.8880    5.2210   50.0400 C   0  0  0  0  0  0  0  0  0  0  0  0
    1.3080    6.2950   52.2590 C   0  0  0  0  0  0  0  0  0  0  0  0
    3.3340    6.3860   50.9010 C   0  0  0  0  0  0  0  0  0  0  0  0
    2.4990    0.4660   54.2520 C   0  0  0  0  0  0  0  0  0  0  0  0
    2.8050    8.4010   52.3760 C   0  0  0  0  0  0  0  0  0  0  0  0
    1.9960    4.3540   50.7800 N   0  0  0  0  0  0  0  0  0  0  0  0
    2.2930    7.1810   51.6150 N   0  0  0  0  0  0  0  0  0  0  0  0
    0.2780   -0.3060   48.4070 N   0  0  0  0  0  0  0  0  0  0  0  0
   -0.9290   -0.4560   48.3700 O   0  0  0  0  0  0  0  0  0  0  0  0
    3.2010    2.5350   52.6290 O   0  0  0  0  0  0  0  0  0  0  0  0
    1.0600   -1.1680   48.0550 O   0  0  0  0  0  0  0  0  0  0  0  0
    2.0470    0.6780   52.8940 O   0  0  0  0  0  0  0  0  0  0  0  0
  1  2  2  0
  1  3  1  0
  2  4  1  0
  3  5  2  0
  4 10  2  0
  5 10  1  0
  6  7  2  0
  6 11  1  0
  7 12  1  0
  8  9  1  0
  8 12  2  0
  9 11  2  0
  9 13  1  0
 10 19  1  0
 11 20  1  0
 12 22  1  0
 13 24  2  0
 13 26  1  0
 14 16  1  0
 14 20  1  0
 15 17  1  0
 15 20  1  0
 16 21  1  0
 17 21  1  0
 18 26  1  0
 19 21  1  0
 22 23  1  0
 22 25  2  0
M  CHG  3  21   1  22   1  23  -1
M  END
>  <washed_aromatic_smiles>  (775) 
COC(=O)c1cc(ccc1N2CCN(CC2)Cc3ccccc3)[N+](=O)[O-]

>  <name>  (775) 
neg204420

$$$$
neg234321
     RDKit          3D

 28 31  0  0  0  0  0  0  0  0999 V2000
    3.0530    4.6540   49.3790 C   0  0  0  0  0  0  0  0  0  0  0  0
    3.2270    6.0290   49.4730 C   0  0  0  0  0  0  0  0  0  0  0  0
    2.7410    3.9270   50.5210 C   0  0  0  0  0  0  0  0  0  0  0  0
    3.9860   10.7560   58.2070 C   0  0  0  0  0  0  0  0  0  0  0  0
    3.0180    6.6890   50.6810 C   0  0  0  0  0  0  0  0  0  0  0  0
    2.6120    4.5740   51.7440 C   0  0  0  0  0  0  0  0  0  0  0  0
    3.3000    9.7970   57.4470 C   0  0  0  0  0  0  0  0  0  0  0  0
    5.4660   11.1500   56.3910 C   0  0  0  0  0  0  0  0  0  0  0  0
    5.0350   11.4990   57.6600 C   0  0  0  0  0  0  0  0  0  0  0  0
    2.6900    5.9670   51.8290 C   0  0  0  0  0  0  0  0  0  0  0  0
    3.6880    9.5040   56.1410 C   0  0  0  0  0  0  0  0  0  0  0  0
    4.8370   10.1650   55.6500 C   0  0  0  0  0  0  0  0  0  0  0  0
    5.6760   12.6460   58.2910 C   0  0  0  0  0  0  0  0  0  0  0  0
    4.9450   10.7490   53.4200 C   0  0  0  0  0  0  0  0  0  0  0  0
    5.1020   13.1670   54.2510 C   0  0  0  0  0  0  0  0  0  0  0  0
    4.9700   13.2790   52.7820 C   0  0  0  0  0  0  0  0  0  0  0  0
    1.5090    7.5890   53.4060 C   0  0  0  0  0  0  0  0  0  0  0  0
    3.8270    7.1720   53.4910 C   0  0  0  0  0  0  0  0  0  0  0  0
    1.8260    8.6730   54.5150 C   0  0  0  0  0  0  0  0  0  0  0  0
    3.8920    7.4550   54.9790 C   0  0  0  0  0  0  0  0  0  0  0  0
    5.6400   12.0800   53.3480 C   0  0  0  0  0  0  0  0  0  0  0  0
    6.4980   13.8560   60.2600 C   0  0  0  0  0  0  0  0  0  0  0  0
    2.5740    6.6010   53.0990 N   0  0  0  0  0  0  0  0  0  0  0  0
    2.9940    8.4640   55.4500 N   0  0  0  0  0  0  0  0  0  0  0  0
    5.4140    9.9460   54.3890 N   0  0  0  0  0  0  0  0  0  0  0  0
    6.1230   13.5810   57.6400 O   0  0  0  0  0  0  0  0  0  0  0  0
    3.8740   10.5060   52.9270 O   0  0  0  0  0  0  0  0  0  0  0  0
    5.8340   12.6990   59.6370 O   0  0  0  0  0  0  0  0  0  0  0  0
  1  2  2  0
  1  3  1  0
  2  5  1  0
  3  6  2  0
  4  7  2  0
  4  9  1  0
  5 10  2  0
  6 10  1  0
  7 11  1  0
  8  9  2  0
  8 12  1  0
  9 13  1  0
 10 23  1  0
 11 12  2  0
 11 24  1  0
 12 25  1  0
 13 26  2  0
 13 28  1  0
 14 21  1  0
 14 25  1  0
 14 27  2  0
 15 16  1  0
 15 21  1  0
 16 21  1  0
 17 19  1  0
 17 23  1  0
 18 20  1  0
 18 23  1  0
 19 24  1  0
 20 24  1  0
 22 28  1  0
M  END
>  <washed_aromatic_smiles>  (776) 
COC(=O)c1ccc(c(c1)NC(=O)C2CC2)N3CCN(CC3)c4ccccc4

>  <name>  (776) 
neg234321

$$$$
neg281931
     RDKit          3D

 28 30  0  0  0  0  0  0  0  0999 V2000
    0.9090    0.2920   49.4720 C   0  0  0  0  0  0  0  0  0  0  0  0
    0.5590    1.0160   48.3380 C   0  0  0  0  0  0  0  0  0  0  0  0
    1.8080    0.8290   50.3880 C   0  0  0  0  0  0  0  0  0  0  0  0
    5.4710   10.7960   56.2680 C   0  0  0  0  0  0  0  0  0  0  0  0
    1.1030    2.2780   48.1220 C   0  0  0  0  0  0  0  0  0  0  0  0
    2.3600    2.0880   50.1670 C   0  0  0  0  0  0  0  0  0  0  0  0
    5.2430    9.7020   57.0930 C   0  0  0  0  0  0  0  0  0  0  0  0
    4.6340    9.5740   54.3700 C   0  0  0  0  0  0  0  0  0  0  0  0
    5.2500   10.7150   54.8790 C   0  0  0  0  0  0  0  0  0  0  0  0
    2.0120    2.8200   49.0310 C   0  0  0  0  0  0  0  0  0  0  0  0
    4.3080    8.5280   55.2190 C   0  0  0  0  0  0  0  0  0  0  0  0
    4.7320    8.5240   56.5570 C   0  0  0  0  0  0  0  0  0  0  0  0
    5.6730   11.7440   53.9390 C   0  0  0  0  0  0  0  0  0  0  0  0
    2.1100    7.9930   54.5030 C   0  0  0  0  0  0  0  0  0  0  0  0
    0.9670    5.0670   50.4710 C   0  0  0  0  0  0  0  0  0  0  0  0
    3.3130    5.4970   50.7990 C   0  0  0  0  0  0  0  0  0  0  0  0
    0.6160    6.0490   51.6010 C   0  0  0  0  0  0  0  0  0  0  0  0
    2.9570    6.5840   51.8190 C   0  0  0  0  0  0  0  0  0  0  0  0
    4.8020   13.5820   55.3210 C   0  0  0  0  0  0  0  0  0  0  0  0
    2.5900    4.2010   48.7750 C   0  0  0  0  0  0  0  0  0  0  0  0
    1.2940    7.5410   53.3090 C   0  0  0  0  0  0  0  0  0  0  0  0
    2.2660    5.2690   49.7860 N   0  0  0  0  0  0  0  0  0  0  0  0
    1.7030    6.3400   52.5440 N   0  0  0  0  0  0  0  0  0  0  0  0
    3.4040    7.5840   54.7010 N   0  0  0  0  0  0  0  0  0  0  0  0
    6.1720   11.4920   52.8550 O   0  0  0  0  0  0  0  0  0  0  0  0
    1.6540    8.8190   55.2690 O   0  0  0  0  0  0  0  0  0  0  0  0
    5.5240   13.0500   54.2070 O   0  0  0  0  0  0  0  0  0  0  0  0
    4.6980    7.1020   57.5390 Cl  0  0  0  0  0  0  0  0  0  0  0  0
  1  2  2  0
  1  3  1  0
  2  5  1  0
  3  6  2  0
  4  7  2  0
  4  9  1  0
  5 10  2  0
  6 10  1  0
  7 12  1  0
  8  9  2  0
  8 11  1  0
  9 13  1  0
 10 20  1  0
 11 12  2  0
 11 24  1  0
 12 28  1  0
 13 25  2  0
 13 27  1  0
 14 21  1  0
 14 24  1  0
 14 26  2  0
 15 17  1  0
 15 22  1  0
 16 18  1  0
 16 22  1  0
 17 23  1  0
 18 23  1  0
 19 27  1  0
 20 22  1  0
 21 23  1  0
M  CHG  1  22   1
M  END
>  <washed_aromatic_smiles>  (777) 
COC(=O)c1ccc(c(c1)NC(=O)CN2CCN(CC2)Cc3ccccc3)Cl

>  <name>  (777) 
neg281931

$$$$
neg232850
     RDKit          3D

 26 28  0  0  0  0  0  0  0  0999 V2000
    1.1500    3.8370   47.8140 C   0  0  0  0  0  0  0  0  0  0  0  0
    1.5870    4.3540   49.0140 C   0  0  0  0  0  0  0  0  0  0  0  0
    0.8190    2.4890   47.6810 C   0  0  0  0  0  0  0  0  0  0  0  0
    1.6830    3.5260   50.1030 C   0  0  0  0  0  0  0  0  0  0  0  0
    0.9440    1.6410   48.7730 C   0  0  0  0  0  0  0  0  0  0  0  0
    3.0310    1.6140   51.5780 C   0  0  0  0  0  0  0  0  0  0  0  0
    0.9230    0.5090   51.8670 C   0  0  0  0  0  0  0  0  0  0  0  0
    3.4500    1.1830   52.7950 C   0  0  0  0  0  0  0  0  0  0  0  0
    1.3680    0.0310   53.0990 C   0  0  0  0  0  0  0  0  0  0  0  0
    5.7990    1.2100   59.3470 C   0  0  0  0  0  0  0  0  0  0  0  0
    5.7540   -0.0080   58.6840 C   0  0  0  0  0  0  0  0  0  0  0  0
    4.7010    2.2610   57.4780 C   0  0  0  0  0  0  0  0  0  0  0  0
    1.4010    2.1590   49.9860 C   0  0  0  0  0  0  0  0  0  0  0  0
    1.7490    1.3640   51.1300 C   0  0  0  0  0  0  0  0  0  0  0  0
    2.6140    0.4350   53.6060 C   0  0  0  0  0  0  0  0  0  0  0  0
    5.3260    2.3740   58.7290 C   0  0  0  0  0  0  0  0  0  0  0  0
    4.5530    1.0280   56.8530 C   0  0  0  0  0  0  0  0  0  0  0  0
    5.2020   -0.0960   57.4060 C   0  0  0  0  0  0  0  0  0  0  0  0
    3.0730    0.0980   54.9340 C   0  0  0  0  0  0  0  0  0  0  0  0
    5.4810    3.6680   59.3810 C   0  0  0  0  0  0  0  0  0  0  0  0
    5.4150    6.1210   59.1770 C   0  0  0  0  0  0  0  0  0  0  0  0
    3.7570    1.0650   55.6550 N   0  0  0  0  0  0  0  0  0  0  0  0
    2.8580   -0.9840   55.4020 O   0  0  0  0  0  0  0  0  0  0  0  0
    5.7770    3.8070   60.5600 O   0  0  0  0  0  0  0  0  0  0  0  0
    5.2900    4.7860   58.6340 O   0  0  0  0  0  0  0  0  0  0  0  0
    5.5030   -1.5460   56.5330 Cl  0  0  0  0  0  0  0  0  0  0  0  0
  1  2  2  0
  1  3  1  0
  2  4  1  0
  3  5  2  0
  4 13  2  0
  5 13  1  0
  6  8  2  0
  6 14  1  0
  7  9  1  0
  7 14  2  0
  8 15  1  0
  9 15  2  0
 10 11  2  0
 10 16  1  0
 11 18  1  0
 12 16  2  0
 12 17  1  0
 13 14  1  0
 15 19  1  0
 16 20  1  0
 17 18  2  0
 17 22  1  0
 18 26  1  0
 19 22  1  0
 19 23  2  0
 20 24  2  0
 20 25  1  0
 21 25  1  0
M  END
>  <washed_aromatic_smiles>  (778) 
COC(=O)c1ccc(c(c1)NC(=O)c2ccc(cc2)c3ccccc3)Cl

>  <name>  (778) 
neg232850

$$$$
neg253217
     RDKit          3D

 27 29  0  0  0  0  0  0  0  0999 V2000
    0.5780    1.3080   45.6870 C   0  0  0  0  0  0  0  0  0  0  0  0
    0.1870    2.1670   46.6950 C   0  0  0  0  0  0  0  0  0  0  0  0
    1.1050    0.0820   46.0260 C   0  0  0  0  0  0  0  0  0  0  0  0
    3.2790    0.6260   54.2700 C   0  0  0  0  0  0  0  0  0  0  0  0
    2.3940   -0.3210   54.7250 C   0  0  0  0  0  0  0  0  0  0  0  0
    0.9060    5.8050   50.8220 C   0  0  0  0  0  0  0  0  0  0  0  0
    2.6340    5.4950   52.4260 C   0  0  0  0  0  0  0  0  0  0  0  0
    1.2650    4.6060   50.2100 C   0  0  0  0  0  0  0  0  0  0  0  0
    2.7900    4.2060   51.9790 C   0  0  0  0  0  0  0  0  0  0  0  0
    0.3420    1.8160   48.0090 C   0  0  0  0  0  0  0  0  0  0  0  0
    1.2000   -0.3040   47.3530 C   0  0  0  0  0  0  0  0  0  0  0  0
    3.1180    1.1150   52.9880 C   0  0  0  0  0  0  0  0  0  0  0  0
    1.2760   -0.6070   53.9730 C   0  0  0  0  0  0  0  0  0  0  0  0
    1.5830    6.2660   51.9520 C   0  0  0  0  0  0  0  0  0  0  0  0
    2.1560    3.7410   50.8400 C   0  0  0  0  0  0  0  0  0  0  0  0
    0.8200    0.5770   48.3560 C   0  0  0  0  0  0  0  0  0  0  0  0
    1.9540    0.7890   52.2760 C   0  0  0  0  0  0  0  0  0  0  0  0
    1.1930    7.4380   52.7200 C   0  0  0  0  0  0  0  0  0  0  0  0
    1.7270    8.6930   54.7670 C   0  0  0  0  0  0  0  0  0  0  0  0
    2.4590    2.3260   50.3530 C   0  0  0  0  0  0  0  0  0  0  0  0
    1.0510   -0.0380   52.8100 N   0  0  0  0  0  0  0  0  0  0  0  0
    1.6640    1.2580   50.9680 N   0  0  0  0  0  0  0  0  0  0  0  0
    0.2900    8.2090   52.4430 O   0  0  0  0  0  0  0  0  0  0  0  0
   -0.5680    0.1870   50.4670 O   0  0  0  0  0  0  0  0  0  0  0  0
    1.4500   -1.1360   50.1550 O   0  0  0  0  0  0  0  0  0  0  0  0
    1.8710    7.6040   53.8800 O   0  0  0  0  0  0  0  0  0  0  0  0
    0.7920    0.1210   50.0610 S   0  0  0  0  0  0  0  0  0  0  0  0
  1  2  2  0
  1  3  1  0
  2 10  1  0
  3 11  2  0
  4  5  2  0
  4 12  1  0
  5 13  1  0
  6  8  2  0
  6 14  1  0
  7  9  1  0
  7 14  2  0
  8 15  1  0
  9 15  2  0
 10 16  2  0
 11 16  1  0
 12 17  2  0
 13 21  2  0
 14 18  1  0
 15 20  1  0
 16 27  1  0
 17 21  1  0
 17 22  1  0
 18 23  2  0
 18 26  1  0
 19 26  1  0
 20 22  1  0
 22 27  1  0
 24 27  2  0
 25 27  2  0
M  END
>  <washed_aromatic_smiles>  (779) 
COC(=O)c1ccc(cc1)CN(c2ccccn2)S(=O)(=O)c3ccccc3

>  <name>  (779) 
neg253217

$$$$
neg282593
     RDKit          3D

 25 26  0  0  0  0  0  0  0  0999 V2000
    1.7860    3.8580   48.9870 C   0  0  0  0  0  0  0  0  0  0  0  0
    2.1090    2.0390   50.5460 C   0  0  0  0  0  0  0  0  0  0  0  0
    2.2800    4.7530   49.9210 C   0  0  0  0  0  0  0  0  0  0  0  0
    2.6060    2.9290   51.4820 C   0  0  0  0  0  0  0  0  0  0  0  0
    1.6670    2.4930   49.2950 C   0  0  0  0  0  0  0  0  0  0  0  0
    2.6510    4.2950   51.1890 C   0  0  0  0  0  0  0  0  0  0  0  0
    1.0970    1.5580   48.3440 C   0  0  0  0  0  0  0  0  0  0  0  0
    3.0840    6.5090   52.3400 C   0  0  0  0  0  0  0  0  0  0  0  0
    5.2420   10.4340   56.8220 C   0  0  0  0  0  0  0  0  0  0  0  0
    4.0210    9.7510   57.4220 C   0  0  0  0  0  0  0  0  0  0  0  0
    4.9590   11.0000   55.4200 C   0  0  0  0  0  0  0  0  0  0  0  0
    3.5350    8.6330   56.4950 C   0  0  0  0  0  0  0  0  0  0  0  0
    4.4200    9.9090   54.4790 C   0  0  0  0  0  0  0  0  0  0  0  0
    3.2160    9.1530   55.0890 C   0  0  0  0  0  0  0  0  0  0  0  0
    0.4330    1.1220   46.0600 C   0  0  0  0  0  0  0  0  0  0  0  0
    0.5240    9.1670   52.7300 C   0  0  0  0  0  0  0  0  0  0  0  0
    3.4710    7.0770   53.6950 C   0  0  0  0  0  0  0  0  0  0  0  0
    3.0770    5.1350   52.2480 N   0  0  0  0  0  0  0  0  0  0  0  0
    2.5980    8.1470   54.2010 N   0  0  0  0  0  0  0  0  0  0  0  0
    0.8200    0.3940   48.6080 O   0  0  0  0  0  0  0  0  0  0  0  0
    2.7890    7.2170   51.4050 O   0  0  0  0  0  0  0  0  0  0  0  0
    0.5950    6.7430   53.5440 O   0  0  0  0  0  0  0  0  0  0  0  0
    0.2880    8.4670   55.2100 O   0  0  0  0  0  0  0  0  0  0  0  0
    0.8830    2.0090   47.0870 O   0  0  0  0  0  0  0  0  0  0  0  0
    0.9390    8.0350   54.0210 S   0  0  0  0  0  0  0  0  0  0  0  0
  1  3  2  0
  1  5  1  0
  2  4  1  0
  2  5  2  0
  3  6  1  0
  4  6  2  0
  5  7  1  0
  6 18  1  0
  7 20  2  0
  7 24  1  0
  8 17  1  0
  8 18  1  0
  8 21  2  0
  9 10  1  0
  9 11  1  0
 10 12  1  0
 11 13  1  0
 12 14  1  0
 13 14  1  0
 14 19  1  0
 15 24  1  0
 16 25  1  0
 17 19  1  0
 19 25  1  0
 22 25  2  0
 23 25  2  0
M  END
>  <washed_aromatic_smiles>  (780) 
COC(=O)c1ccc(cc1)NC(=O)CN(C2CCCCC2)S(=O)(=O)C

>  <name>  (780) 
neg282593

$$$$
neg224469
     RDKit          3D

 29 31  0  0  0  0  0  0  0  0999 V2000
   -2.7360    6.5520   59.7930 C   0  0  0  0  0  0  0  0  0  0  0  0
    5.1150    9.9550   54.9440 C   0  0  0  0  0  0  0  0  0  0  0  0
    5.0620    9.9780   56.3430 C   0  0  0  0  0  0  0  0  0  0  0  0
   -2.6480    6.2080   58.4480 C   0  0  0  0  0  0  0  0  0  0  0  0
   -2.0210    7.6180   60.2560 C   0  0  0  0  0  0  0  0  0  0  0  0
    4.1260    9.3020   54.2450 C   0  0  0  0  0  0  0  0  0  0  0  0
    3.0200    5.9860   49.8530 C   0  0  0  0  0  0  0  0  0  0  0  0
    2.7820    3.8810   50.9720 C   0  0  0  0  0  0  0  0  0  0  0  0
    4.0000    9.4300   57.0090 C   0  0  0  0  0  0  0  0  0  0  0  0
    2.9520    6.6610   51.0680 C   0  0  0  0  0  0  0  0  0  0  0  0
    2.8550    4.5350   52.1890 C   0  0  0  0  0  0  0  0  0  0  0  0
   -1.7110    6.8410   57.6350 C   0  0  0  0  0  0  0  0  0  0  0  0
   -1.1580    8.2430   59.3900 C   0  0  0  0  0  0  0  0  0  0  0  0
    2.8860    4.5930   49.7790 C   0  0  0  0  0  0  0  0  0  0  0  0
    3.0400    8.6610   54.8730 C   0  0  0  0  0  0  0  0  0  0  0  0
    2.9000    5.9380   52.2590 C   0  0  0  0  0  0  0  0  0  0  0  0
    2.8690    8.8870   56.3250 C   0  0  0  0  0  0  0  0  0  0  0  0
   -0.8770    7.8100   58.1100 C   0  0  0  0  0  0  0  0  0  0  0  0
    2.3300    7.7680   53.9700 C   0  0  0  0  0  0  0  0  0  0  0  0
    2.9820    3.8980   48.5040 C   0  0  0  0  0  0  0  0  0  0  0  0
    1.0380    2.2410   48.7560 C   0  0  0  0  0  0  0  0  0  0  0  0
    3.0300    6.6210   53.5200 N   0  0  0  0  0  0  0  0  0  0  0  0
    1.8120    8.7780   57.1390 N   0  0  0  0  0  0  0  0  0  0  0  0
    1.2480    7.9990   53.4200 O   0  0  0  0  0  0  0  0  0  0  0  0
    3.8650    4.1250   47.7040 O   0  0  0  0  0  0  0  0  0  0  0  0
   -0.1430    9.9840   57.4970 O   0  0  0  0  0  0  0  0  0  0  0  0
   -0.1810    8.4590   55.6650 O   0  0  0  0  0  0  0  0  0  0  0  0
    2.1430    2.9070   48.1270 O   0  0  0  0  0  0  0  0  0  0  0  0
    0.1750    8.7690   57.0080 S   0  0  2  0  0  0  0  0  0  0  0  0
  1  4  2  0
  1  5  1  0
  2  3  2  0
  2  6  1  0
  3  9  1  0
  4 12  1  0
  5 13  2  0
  6 15  2  0
  7 10  2  0
  7 14  1  0
  8 11  1  0
  8 14  2  0
  9 17  2  0
 10 16  1  0
 11 16  2  0
 12 18  2  0
 13 18  1  0
 14 20  1  0
 15 17  1  0
 15 19  1  0
 16 22  1  0
 17 23  1  0
 18 29  1  0
 19 22  1  0
 19 24  2  0
 20 25  2  0
 20 28  1  0
 21 28  1  0
 23 29  2  0
 26 29  2  0
 29 27  1  6
M  CHG  1  27  -1
M  END
>  <washed_aromatic_smiles>  (781) 
COC(=O)c1ccc(cc1)NC(=O)c2ccccc2NS(=O)(=O)c3ccccc3

>  <name>  (781) 
neg224469

$$$$
neg165939
     RDKit          3D

 27 29  0  0  0  0  0  0  0  0999 V2000
    3.2970    4.9260   48.3730 C   0  0  0  0  0  0  0  0  0  0  0  0
    3.1880    3.6030   47.9930 C   0  0  0  0  0  0  0  0  0  0  0  0
    4.8430   11.2770   55.3960 C   0  0  0  0  0  0  0  0  0  0  0  0
    4.7530   10.4120   57.6480 C   0  0  0  0  0  0  0  0  0  0  0  0
    2.7280    5.3590   49.5430 C   0  0  0  0  0  0  0  0  0  0  0  0
    4.1120   10.2110   54.9430 C   0  0  0  0  0  0  0  0  0  0  0  0
    4.0070    9.3360   57.1960 C   0  0  0  0  0  0  0  0  0  0  0  0
    2.4940    2.7060   48.7950 C   0  0  0  0  0  0  0  0  0  0  0  0
    5.1450   11.4280   56.7560 C   0  0  0  0  0  0  0  0  0  0  0  0
    1.9900    4.4890   50.3360 C   0  0  0  0  0  0  0  0  0  0  0  0
    3.6440    9.2650   55.8510 C   0  0  0  0  0  0  0  0  0  0  0  0
    1.9210    3.1350   49.9820 C   0  0  0  0  0  0  0  0  0  0  0  0
    5.8640   12.6400   57.0940 C   0  0  0  0  0  0  0  0  0  0  0  0
    1.5870    8.5450   54.7790 C   0  0  0  0  0  0  0  0  0  0  0  0
    2.8630    8.2710   52.6750 C   0  0  0  0  0  0  0  0  0  0  0  0
    0.4350    8.6360   52.6960 C   0  0  0  0  0  0  0  0  0  0  0  0
    2.6690    6.7990   52.3890 C   0  0  0  0  0  0  0  0  0  0  0  0
    0.2090    7.1420   52.3770 C   0  0  0  0  0  0  0  0  0  0  0  0
    5.8720   12.5950   59.5900 C   0  0  0  0  0  0  0  0  0  0  0  0
    1.2790    5.0300   51.5390 C   0  0  0  0  0  0  0  0  0  0  0  0
    1.7040    8.8240   53.4170 N   0  0  0  0  0  0  0  0  0  0  0  0
    1.3800    6.4870   51.7140 N   0  0  0  0  0  0  0  0  0  0  0  0
    2.7790    8.2480   55.4600 N   0  0  0  0  0  0  0  0  0  0  0  0
    6.4120   13.2600   56.2180 O   0  0  0  0  0  0  0  0  0  0  0  0
    6.0330   13.1840   58.3140 O   0  0  0  0  0  0  0  0  0  0  0  0
    0.0910    8.4870   55.5620 S   0  0  0  0  0  0  0  0  0  0  0  0
    1.1760    1.9160   50.9670 Cl  0  0  0  0  0  0  0  0  0  0  0  0
  1  2  2  0
  1  5  1  0
  2  8  1  0
  3  6  2  0
  3  9  1  0
  4  7  1  0
  4  9  2  0
  5 10  2  0
  6 11  1  0
  7 11  2  0
  8 12  2  0
  9 13  1  0
 10 12  1  0
 10 20  1  0
 11 23  1  0
 12 27  1  0
 13 24  2  0
 13 25  1  0
 14 21  1  0
 14 23  1  0
 14 26  2  0
 15 17  1  0
 15 21  1  0
 16 18  1  0
 16 21  1  0
 17 22  1  0
 18 22  1  0
 19 25  1  0
 20 22  1  0
M  CHG  1  22   1
M  END
>  <washed_aromatic_smiles>  (782) 
COC(=O)c1ccc(cc1)NC(=S)N2CCN(CC2)Cc3ccccc3Cl

>  <name>  (782) 
neg165939

$$$$
neg76443
     RDKit          3D

 26 28  0  0  0  0  0  0  0  0999 V2000
    5.6800   12.7020   58.5720 C   0  0  0  0  0  0  0  0  0  0  0  0
    5.5040   11.3690   58.9240 C   0  0  0  0  0  0  0  0  0  0  0  0
    5.6160   13.0710   57.2420 C   0  0  0  0  0  0  0  0  0  0  0  0
    5.1980   10.4130   57.9710 C   0  0  0  0  0  0  0  0  0  0  0  0
    3.0840    5.6350   52.5150 C   0  0  0  0  0  0  0  0  0  0  0  0
    1.1380    6.4390   51.4020 C   0  0  0  0  0  0  0  0  0  0  0  0
    2.8100    4.3630   52.0170 C   0  0  0  0  0  0  0  0  0  0  0  0
    1.0320    5.2500   50.7000 C   0  0  0  0  0  0  0  0  0  0  0  0
    5.4620   12.0970   56.2510 C   0  0  0  0  0  0  0  0  0  0  0  0
    5.1530   10.7790   56.6270 C   0  0  0  0  0  0  0  0  0  0  0  0
    2.2300    6.6990   52.2220 C   0  0  0  0  0  0  0  0  0  0  0  0
    1.8670    4.1910   51.0170 C   0  0  0  0  0  0  0  0  0  0  0  0
    5.7820   12.3820   54.8870 C   0  0  0  0  0  0  0  0  0  0  0  0
    4.1040    9.7380   54.5250 C   0  0  0  0  0  0  0  0  0  0  0  0
    2.2140    8.5120   55.4490 C   0  0  0  0  0  0  0  0  0  0  0  0
    3.2650    7.4640   55.2620 C   0  0  0  0  0  0  0  0  0  0  0  0
    3.1640    8.5950   54.3030 C   0  0  0  0  0  0  0  0  0  0  0  0
    5.3210   13.5320   52.8770 C   0  0  0  0  0  0  0  0  0  0  0  0
    4.8110    9.7300   55.7340 N   0  0  0  0  0  0  0  0  0  0  0  0
    6.3930   11.5800   54.2130 O   0  0  0  0  0  0  0  0  0  0  0  0
    4.1000   10.6540   53.7400 O   0  0  0  0  0  0  0  0  0  0  0  0
    3.4970    8.8960   51.7660 O   0  0  0  0  0  0  0  0  0  0  0  0
    1.2530    9.1010   52.6490 O   0  0  0  0  0  0  0  0  0  0  0  0
    5.3420   13.5050   54.3130 O   0  0  0  0  0  0  0  0  0  0  0  0
    2.5090    8.4270   52.6530 S   0  0  0  0  0  0  0  0  0  0  0  0
    1.7480    2.6650   50.1970 Cl  0  0  0  0  0  0  0  0  0  0  0  0
  1  2  2  0
  1  3  1  0
  2  4  1  0
  3  9  2  0
  4 10  2  0
  5  7  2  0
  5 11  1  0
  6  8  1  0
  6 11  2  0
  7 12  1  0
  8 12  2  0
  9 10  1  0
  9 13  1  0
 10 19  1  0
 11 25  1  0
 12 26  1  0
 13 20  2  0
 13 24  1  0
 14 17  1  0
 14 19  1  0
 14 21  2  0
 15 16  1  0
 15 17  1  0
 16 17  1  0
 17 25  1  0
 18 24  1  0
 22 25  2  0
 23 25  2  0
M  END
>  <washed_aromatic_smiles>  (783) 
COC(=O)c1ccccc1NC(=O)C2(CC2)S(=O)(=O)c3ccc(cc3)Cl

>  <name>  (783) 
neg76443

$$$$
neg285090
     RDKit          3D

 26 27  0  0  0  0  0  0  0  0999 V2000
    5.2640   13.2850   54.6820 C   0  0  0  0  0  0  0  0  0  0  0  0
    1.6720    3.4850   48.5060 C   0  0  0  0  0  0  0  0  0  0  0  0
    5.1330   12.7310   53.4150 C   0  0  0  0  0  0  0  0  0  0  0  0
    5.4270   12.4630   55.7880 C   0  0  0  0  0  0  0  0  0  0  0  0
    2.0280    4.8210   48.6190 C   0  0  0  0  0  0  0  0  0  0  0  0
    1.8230    2.6460   49.5950 C   0  0  0  0  0  0  0  0  0  0  0  0
    5.1330   11.3500   53.2540 C   0  0  0  0  0  0  0  0  0  0  0  0
    5.4290   11.0840   55.6250 C   0  0  0  0  0  0  0  0  0  0  0  0
    2.5070    5.3320   49.8140 C   0  0  0  0  0  0  0  0  0  0  0  0
    2.3150    3.1230   50.8210 C   0  0  0  0  0  0  0  0  0  0  0  0
    5.2600   10.5160   54.3600 C   0  0  0  0  0  0  0  0  0  0  0  0
    2.5980    4.5180   50.9430 C   0  0  0  0  0  0  0  0  0  0  0  0
    2.5290    2.1240   51.8550 C   0  0  0  0  0  0  0  0  0  0  0  0
    2.8310    6.5060   52.5440 C   0  0  0  0  0  0  0  0  0  0  0  0
    1.7150    0.0780   52.9680 C   0  0  0  0  0  0  0  0  0  0  0  0
    1.2110    8.4090   54.9050 C   0  0  0  0  0  0  0  0  0  0  0  0
    5.1660    9.0110   54.1830 C   0  0  0  0  0  0  0  0  0  0  0  0
    3.7430    7.0350   53.6580 C   0  0  0  0  0  0  0  0  0  0  0  0
    3.0250    5.1560   52.1650 N   0  0  0  0  0  0  0  0  0  0  0  0
    3.7800    8.4790   54.1440 N   0  0  0  0  0  0  0  0  0  0  0  0
    3.4750    2.1040   52.6100 O   0  0  0  0  0  0  0  0  0  0  0  0
    1.9540    7.1740   52.0360 O   0  0  0  0  0  0  0  0  0  0  0  0
    3.2870    7.8570   56.5020 O   0  0  0  0  0  0  0  0  0  0  0  0
    2.8810   10.1120   55.9140 O   0  0  0  0  0  0  0  0  0  0  0  0
    1.6180    1.1210   51.9620 O   0  0  0  0  0  0  0  0  0  0  0  0
    2.8640    8.7630   55.4980 S   0  0  0  0  0  0  0  0  0  0  0  0
  1  3  2  0
  1  4  1  0
  2  5  2  0
  2  6  1  0
  3  7  1  0
  4  8  2  0
  5  9  1  0
  6 10  2  0
  7 11  2  0
  8 11  1  0
  9 12  2  0
 10 12  1  0
 10 13  1  0
 11 17  1  0
 12 19  1  0
 13 21  2  0
 13 25  1  0
 14 18  1  0
 14 19  1  0
 14 22  2  0
 15 25  1  0
 16 26  1  0
 17 20  1  0
 18 20  1  0
 20 26  1  0
 23 26  2  0
 24 26  2  0
M  END
>  <washed_aromatic_smiles>  (784) 
COC(=O)c1ccccc1NC(=O)CN(Cc2ccccc2)S(=O)(=O)C

>  <name>  (784) 
neg285090

$$$$
neg224529
     RDKit          3D

 26 28  0  0  0  0  0  0  0  0999 V2000
    3.3880    4.9590   48.9530 C   0  0  0  0  0  0  0  0  0  0  0  0
    3.7310    6.3160   49.0670 C   0  0  0  0  0  0  0  0  0  0  0  0
    5.5000   11.4020   58.4510 C   0  0  0  0  0  0  0  0  0  0  0  0
    4.9790   10.1150   58.5740 C   0  0  0  0  0  0  0  0  0  0  0  0
    0.1100    5.7750   52.3200 C   0  0  0  0  0  0  0  0  0  0  0  0
    2.5220    4.4260   49.8640 C   0  0  0  0  0  0  0  0  0  0  0  0
    3.3200    7.0720   50.1330 C   0  0  0  0  0  0  0  0  0  0  0  0
    0.8000    4.9050   51.5140 C   0  0  0  0  0  0  0  0  0  0  0  0
    5.6690   11.9670   57.1930 C   0  0  0  0  0  0  0  0  0  0  0  0
    0.6740    7.0020   52.6680 C   0  0  0  0  0  0  0  0  0  0  0  0
    4.5200    9.4400   57.4580 C   0  0  0  0  0  0  0  0  0  0  0  0
    1.9640    5.2650   50.8570 C   0  0  0  0  0  0  0  0  0  0  0  0
    2.4550    6.5500   51.0990 C   0  0  0  0  0  0  0  0  0  0  0  0
    1.9140    7.3240   52.1710 C   0  0  0  0  0  0  0  0  0  0  0  0
    5.2660   11.2840   56.0340 C   0  0  0  0  0  0  0  0  0  0  0  0
    4.6210   10.0480   56.2080 C   0  0  0  0  0  0  0  0  0  0  0  0
    2.6500    8.3770   52.8190 C   0  0  0  0  0  0  0  0  0  0  0  0
    5.3820   11.9100   54.7130 C   0  0  0  0  0  0  0  0  0  0  0  0
    4.6830    8.6910   54.2090 C   0  0  0  0  0  0  0  0  0  0  0  0
    3.8050   13.4840   55.4620 C   0  0  0  0  0  0  0  0  0  0  0  0
    3.9850    9.4280   55.1460 N   0  0  0  0  0  0  0  0  0  0  0  0
    3.8550    7.9840   53.3500 N   0  0  0  0  0  0  0  0  0  0  0  0
    2.2240    9.5080   52.9840 O   0  0  0  0  0  0  0  0  0  0  0  0
    6.1200   11.5430   53.8200 O   0  0  0  0  0  0  0  0  0  0  0  0
    4.6110   12.9690   54.4150 O   0  0  0  0  0  0  0  0  0  0  0  0
    6.3530    8.5540   54.1600 S   0  0  0  0  0  0  0  0  0  0  0  0
  1  2  2  0
  1  6  1  0
  2  7  1  0
  3  4  2  0
  3  9  1  0
  4 11  1  0
  5  8  2  0
  5 10  1  0
  6 12  2  0
  7 13  2  0
  8 12  1  0
  9 15  2  0
 10 14  2  0
 11 16  2  0
 12 13  1  0
 13 14  1  0
 14 17  1  0
 15 16  1  0
 15 18  1  0
 16 21  1  0
 17 22  1  0
 17 23  2  0
 18 24  2  0
 18 25  1  0
 19 21  1  0
 19 22  1  0
 19 26  2  0
 20 25  1  0
M  END
>  <washed_aromatic_smiles>  (785) 
COC(=O)c1ccccc1NC(=S)NC(=O)c2cccc3c2cccc3

>  <name>  (785) 
neg224529

$$$$
neg236949
     RDKit          3D

 27 29  0  0  0  0  0  0  0  0999 V2000
    3.2380    4.0470   48.1940 C   0  0  0  0  0  0  0  0  0  0  0  0
    3.3470    5.3300   48.7130 C   0  0  0  0  0  0  0  0  0  0  0  0
    2.5860    3.0630   48.9190 C   0  0  0  0  0  0  0  0  0  0  0  0
    4.8290   10.5250   58.2300 C   0  0  0  0  0  0  0  0  0  0  0  0
    4.8220   11.4400   55.9840 C   0  0  0  0  0  0  0  0  0  0  0  0
    2.8300    5.6240   49.9600 C   0  0  0  0  0  0  0  0  0  0  0  0
    5.3850   11.7020   58.7080 C   0  0  0  0  0  0  0  0  0  0  0  0
    5.3900   12.6150   56.4650 C   0  0  0  0  0  0  0  0  0  0  0  0
    2.0540    3.3160   50.1850 C   0  0  0  0  0  0  0  0  0  0  0  0
    4.5480   10.3910   56.8700 C   0  0  0  0  0  0  0  0  0  0  0  0
    2.1550    4.6430   50.6880 C   0  0  0  0  0  0  0  0  0  0  0  0
    5.6850   12.7410   57.8270 C   0  0  0  0  0  0  0  0  0  0  0  0
    1.4490    2.1490   50.8340 C   0  0  0  0  0  0  0  0  0  0  0  0
    3.0660    6.6450   53.1720 C   0  0  0  0  0  0  0  0  0  0  0  0
    2.6210    9.1920   55.9220 C   0  0  0  0  0  0  0  0  0  0  0  0
    4.9450    8.2920   55.7420 C   0  0  0  0  0  0  0  0  0  0  0  0
    2.3430    8.7010   54.4600 C   0  0  0  0  0  0  0  0  0  0  0  0
    4.6910    8.1880   54.2360 C   0  0  0  0  0  0  0  0  0  0  0  0
    3.2240    1.9480   52.5030 C   0  0  0  0  0  0  0  0  0  0  0  0
    1.6950    6.3930   52.5440 C   0  0  0  0  0  0  0  0  0  0  0  0
    4.0080    9.1710   56.4270 N   0  0  0  0  0  0  0  0  0  0  0  0
    3.3220    7.7400   53.9390 N   0  0  0  0  0  0  0  0  0  0  0  0
    0.5220    1.5230   50.3490 O   0  0  0  0  0  0  0  0  0  0  0  0
    3.9500    5.8170   52.9700 O   0  0  0  0  0  0  0  0  0  0  0  0
    1.5700    5.0430   51.8780 O   0  0  0  0  0  0  0  0  0  0  0  0
    1.9830    1.5660   51.9230 O   0  0  0  0  0  0  0  0  0  0  0  0
    6.4610   14.1580   58.4440 Cl  0  0  0  0  0  0  0  0  0  0  0  0
  1  2  2  0
  1  3  1  0
  2  6  1  0
  3  9  2  0
  4  7  2  0
  4 10  1  0
  5  8  1  0
  5 10  2  0
  6 11  2  0
  7 12  1  0
  8 12  2  0
  9 11  1  0
  9 13  1  0
 10 21  1  0
 11 25  1  0
 12 27  1  0
 13 23  2  0
 13 26  1  0
 14 20  1  0
 14 22  1  0
 14 24  2  0
 15 17  1  0
 15 21  1  0
 16 18  1  0
 16 21  1  0
 17 22  1  0
 18 22  1  0
 19 26  1  0
 20 25  1  0
M  END
>  <washed_aromatic_smiles>  (786) 
COC(=O)c1ccccc1OCC(=O)N2CCN(CC2)c3ccc(cc3)Cl

>  <name>  (786) 
neg236949

$$$$
neg92999
     RDKit          3D

 28 30  0  0  0  0  0  0  0  0999 V2000
    0.3900    0.4640   48.5070 C   0  0  0  0  0  0  0  0  0  0  0  0
    0.4430    1.5000   47.5790 C   0  0  0  0  0  0  0  0  0  0  0  0
    1.0720    0.5770   49.7150 C   0  0  0  0  0  0  0  0  0  0  0  0
    5.2050    9.2750   58.3080 C   0  0  0  0  0  0  0  0  0  0  0  0
    6.1440    8.7310   57.4550 C   0  0  0  0  0  0  0  0  0  0  0  0
    1.1750    2.6480   47.8610 C   0  0  0  0  0  0  0  0  0  0  0  0
    1.8110    1.7220   49.9930 C   0  0  0  0  0  0  0  0  0  0  0  0
    3.9630    9.6090   57.8010 C   0  0  0  0  0  0  0  0  0  0  0  0
    5.8600    8.6700   56.0960 C   0  0  0  0  0  0  0  0  0  0  0  0
    1.8720    2.7710   49.0650 C   0  0  0  0  0  0  0  0  0  0  0  0
    3.5870    9.2840   56.4970 C   0  0  0  0  0  0  0  0  0  0  0  0
    4.6080    8.9840   55.5860 C   0  0  0  0  0  0  0  0  0  0  0  0
    2.6380    3.9800   49.3460 C   0  0  0  0  0  0  0  0  0  0  0  0
    2.1640    9.1450   56.2100 C   0  0  0  0  0  0  0  0  0  0  0  0
    3.0490    5.5240   52.6550 C   0  0  0  0  0  0  0  0  0  0  0  0
    2.6740    6.9770   50.9240 C   0  0  0  0  0  0  0  0  0  0  0  0
    3.8130    6.5690   53.4610 C   0  0  0  0  0  0  0  0  0  0  0  0
    2.9680    8.1680   51.8900 C   0  0  0  0  0  0  0  0  0  0  0  0
    3.2300    5.6100   51.1830 C   0  0  0  0  0  0  0  0  0  0  0  0
    0.4860    8.3710   54.5230 C   0  0  0  0  0  0  0  0  0  0  0  0
    3.5670    7.9570   53.1820 N   0  0  0  0  0  0  0  0  0  0  0  0
    2.4480    4.5350   50.5770 N   0  0  0  0  0  0  0  0  0  0  0  0
    3.4180    4.4970   48.5530 O   0  0  0  0  0  0  0  0  0  0  0  0
    1.3130    9.1430   57.0820 O   0  0  0  0  0  0  0  0  0  0  0  0
    3.8860   10.4440   53.5410 O   0  0  0  0  0  0  0  0  0  0  0  0
    5.8580    9.1210   53.3270 O   0  0  0  0  0  0  0  0  0  0  0  0
    1.7660    8.8800   54.9580 O   0  0  0  0  0  0  0  0  0  0  0  0
    4.5210    9.2050   53.8010 S   0  0  0  0  0  0  0  0  0  0  0  0
  1  2  2  0
  1  3  1  0
  2  6  1  0
  3  7  2  0
  4  5  2  0
  4  8  1  0
  5  9  1  0
  6 10  2  0
  7 10  1  0
  8 11  2  0
  9 12  2  0
 10 13  1  0
 11 12  1  0
 11 14  1  0
 12 28  1  0
 13 22  1  0
 13 23  2  0
 14 24  2  0
 14 27  1  0
 15 17  1  0
 15 19  1  0
 16 18  1  0
 16 19  1  0
 17 21  1  0
 18 21  1  0
 19 22  1  0
 20 27  1  0
 21 28  1  0
 25 28  2  0
 26 28  2  0
M  END
>  <washed_aromatic_smiles>  (787) 
COC(=O)c1ccccc1S(=O)(=O)N2CCC(CC2)NC(=O)c3ccccc3

>  <name>  (787) 
neg92999

$$$$
neg110356
     RDKit          3D

 26 28  0  0  0  0  0  0  0  0999 V2000
    1.0160    4.8490   49.7210 C   0  0  0  0  0  0  0  0  0  0  0  0
    3.2870    9.6100   53.5860 C   0  0  0  0  0  0  0  0  0  0  0  0
    5.3000    8.6420   54.4920 C   0  0  0  0  0  0  0  0  0  0  0  0
    0.7900    5.8340   50.6540 C   0  0  0  0  0  0  0  0  0  0  0  0
    3.9930   10.7380   53.2180 C   0  0  0  0  0  0  0  0  0  0  0  0
    6.0160    9.7320   54.0490 C   0  0  0  0  0  0  0  0  0  0  0  0
    2.7130    3.8630   51.1130 C   0  0  0  0  0  0  0  0  0  0  0  0
    1.8860    3.7860   49.9920 C   0  0  0  0  0  0  0  0  0  0  0  0
    3.9400    8.5690   54.2320 C   0  0  0  0  0  0  0  0  0  0  0  0
    1.6580    5.9530   51.7160 C   0  0  0  0  0  0  0  0  0  0  0  0
    2.6570    5.0310   51.8860 C   0  0  0  0  0  0  0  0  0  0  0  0
    5.3480   10.7810   53.4360 C   0  0  0  0  0  0  0  0  0  0  0  0
    2.7420    6.6080   53.3510 C   0  0  0  0  0  0  0  0  0  0  0  0
    1.7860    2.6200   49.1320 C   0  0  0  0  0  0  0  0  0  0  0  0
    6.7230   11.1510   51.7990 C   0  0  0  0  0  0  0  0  0  0  0  0
   -3.0220   -0.6450   49.0740 C   0  0  0  0  0  0  0  0  0  0  0  0
    3.1550    7.3590   54.5820 C   0  0  0  0  0  0  0  0  0  0  0  0
   -0.2510    0.0120   48.8840 C   0  0  0  0  0  0  0  0  0  0  0  0
    1.2320    0.1900   49.0490 C   0  0  0  0  0  0  0  0  0  0  0  0
   -0.9970    0.3090   50.1900 C   0  0  0  0  0  0  0  0  0  0  0  0
    1.7060    6.9040   52.6780 N   0  0  0  0  0  0  0  0  0  0  0  0
    1.6760    1.3990   49.7420 N   0  0  0  0  0  0  0  0  0  0  0  0
    1.6830    2.7020   47.9120 O   0  0  0  0  0  0  0  0  0  0  0  0
    3.4160    5.4930   52.8970 O   0  0  0  0  0  0  0  0  0  0  0  0
    6.0230   11.7800   52.8510 O   0  0  0  0  0  0  0  0  0  0  0  0
   -2.3890   -0.0420   50.1930 O   0  0  0  0  0  0  0  0  0  0  0  0
  1  4  2  0
  1  8  1  0
  2  5  2  0
  2  9  1  0
  3  6  1  0
  3  9  2  0
  4 10  1  0
  5 12  1  0
  6 12  2  0
  7  8  2  0
  7 11  1  0
  8 14  1  0
  9 17  1  0
 10 11  2  0
 10 21  1  0
 11 24  1  0
 12 25  1  0
 13 17  1  0
 13 21  2  0
 13 24  1  0
 14 22  1  0
 14 23  2  0
 15 25  1  0
 16 26  1  0
 18 19  1  0
 18 20  1  0
 19 22  1  0
 20 26  1  0
M  END
>  <washed_aromatic_smiles>  (788) 
COCCCNC(=O)c1ccc2c(c1)oc(n2)Cc3ccc(cc3)OC

>  <name>  (788) 
neg110356

$$$$
neg175643
     RDKit          3D

 26 28  0  0  0  0  0  0  0  0999 V2000
    3.6170    9.0400   56.2260 C   0  0  0  0  0  0  0  0  0  0  0  0
    0.8180    2.7260   47.5900 C   0  0  0  0  0  0  0  0  0  0  0  0
    1.0650    4.0940   47.4570 C   0  0  0  0  0  0  0  0  0  0  0  0
    4.5550    8.4880   55.3690 C   0  0  0  0  0  0  0  0  0  0  0  0
    2.2690    8.9530   55.9080 C   0  0  0  0  0  0  0  0  0  0  0  0
    1.4290    2.0330   48.6170 C   0  0  0  0  0  0  0  0  0  0  0  0
    1.9900    4.7490   48.2130 C   0  0  0  0  0  0  0  0  0  0  0  0
    4.1400    7.8440   54.2080 C   0  0  0  0  0  0  0  0  0  0  0  0
    1.8570    8.3280   54.7290 C   0  0  0  0  0  0  0  0  0  0  0  0
    2.2050    2.7430   49.5310 C   0  0  0  0  0  0  0  0  0  0  0  0
    2.4700    4.0980   49.3070 C   0  0  0  0  0  0  0  0  0  0  0  0
    2.7910    7.7460   53.8700 C   0  0  0  0  0  0  0  0  0  0  0  0
    2.8060    2.9830   51.6890 C   0  0  0  0  0  0  0  0  0  0  0  0
    2.8280    4.4630   51.5610 C   0  0  0  0  0  0  0  0  0  0  0  0
    4.4280    0.4680   56.5330 C   0  0  0  0  0  0  0  0  0  0  0  0
    2.3540    0.6630   54.4490 C   0  0  0  0  0  0  0  0  0  0  0  0
    2.9750    0.9760   53.1160 C   0  0  0  0  0  0  0  0  0  0  0  0
    2.8800   -0.6660   54.9740 C   0  0  0  0  0  0  0  0  0  0  0  0
    2.5640    2.1720   50.7200 N   0  0  0  0  0  0  0  0  0  0  0  0
    2.9950    4.9000   50.2820 N   0  0  0  0  0  0  0  0  0  0  0  0
    3.0140    2.4030   52.9000 N   0  0  0  0  0  0  0  0  0  0  0  0
    2.6990    5.3330   52.4960 N   0  0  0  0  0  0  0  0  0  0  0  0
    3.0150    7.5110   51.2740 O   0  0  0  0  0  0  0  0  0  0  0  0
    0.8580    7.0190   52.2430 O   0  0  0  0  0  0  0  0  0  0  0  0
    4.0890   -0.6640   55.7370 O   0  0  0  0  0  0  0  0  0  0  0  0
    2.2800    6.9270   52.3370 S   0  0  0  0  0  0  0  0  0  0  0  0
  1  4  2  0
  1  5  1  0
  2  3  2  0
  2  6  1  0
  3  7  1  0
  4  8  1  0
  5  9  2  0
  6 10  2  0
  7 11  2  0
  8 12  2  0
  9 12  1  0
 10 11  1  0
 10 19  1  0
 11 20  1  0
 12 26  1  0
 13 14  1  0
 13 19  2  0
 13 21  1  0
 14 20  1  0
 14 22  2  0
 15 25  1  0
 16 17  1  0
 16 18  1  0
 17 21  1  0
 18 25  1  0
 22 26  1  0
 23 26  2  0
 24 26  2  0
M  END
>  <washed_aromatic_smiles>  (789) 
COCCCNc1c(nc2ccccc2n1)NS(=O)(=O)c3ccccc3

>  <name>  (789) 
neg175643

$$$$
neg326516
     RDKit          3D

 30 33  0  0  0  0  0  0  0  0999 V2000
    1.5980    4.3060   48.9940 C   0  0  0  0  0  0  0  0  0  0  0  0
    2.1060    3.0830   51.0030 C   0  0  0  0  0  0  0  0  0  0  0  0
    1.1220    3.1420   48.4110 C   0  0  0  0  0  0  0  0  0  0  0  0
    1.6040    1.9200   50.4270 C   0  0  0  0  0  0  0  0  0  0  0  0
    1.4690    7.6580   53.8630 C   0  0  0  0  0  0  0  0  0  0  0  0
    3.6760    6.8870   53.3130 C   0  0  0  0  0  0  0  0  0  0  0  0
    2.0330    8.5780   54.7500 C   0  0  0  0  0  0  0  0  0  0  0  0
    4.2270    7.8840   54.1070 C   0  0  0  0  0  0  0  0  0  0  0  0
    2.0340    4.3040   50.3210 C   0  0  0  0  0  0  0  0  0  0  0  0
    1.0670    1.9580   49.1410 C   0  0  0  0  0  0  0  0  0  0  0  0
    2.3050    6.8310   53.1130 C   0  0  0  0  0  0  0  0  0  0  0  0
    3.4190    8.7450   54.8470 C   0  0  0  0  0  0  0  0  0  0  0  0
    2.4110    5.5540   50.9680 C   0  0  0  0  0  0  0  0  0  0  0  0
    6.5280    7.8230   58.1260 C   0  0  0  0  0  0  0  0  0  0  0  0
    5.3650    8.0910   59.0590 C   0  0  0  0  0  0  0  0  0  0  0  0
    5.9790    8.2460   56.7690 C   0  0  0  0  0  0  0  0  0  0  0  0
    4.4940    9.1010   58.3020 C   0  0  0  0  0  0  0  0  0  0  0  0
   -1.4050   -0.8600   48.3350 C   0  0  0  0  0  0  0  0  0  0  0  0
   -1.3660    0.3880   50.3490 C   0  0  0  0  0  0  0  0  0  0  0  0
   -2.9020   -1.3900   48.7460 C   0  0  0  0  0  0  0  0  0  0  0  0
   -2.8310   -0.2150   50.3090 C   0  0  0  0  0  0  0  0  0  0  0  0
    0.4260    0.7660   48.4790 C   0  0  0  0  0  0  0  0  0  0  0  0
   -0.5120   -0.1270   49.2610 N   0  0  0  0  0  0  0  0  0  0  0  0
    5.0750    9.3250   57.0150 N   0  0  0  0  0  0  0  0  0  0  0  0
    1.7860    5.8980   52.1690 N   0  0  0  0  0  0  0  0  0  0  0  0
    3.2370    6.3080   50.4750 O   0  0  0  0  0  0  0  0  0  0  0  0
    5.1010   10.7510   54.9450 O   0  0  0  0  0  0  0  0  0  0  0  0
    3.1950   10.8530   56.4410 O   0  0  0  0  0  0  0  0  0  0  0  0
   -3.5590   -0.3580   49.1940 O   0  0  0  0  0  0  0  0  0  0  0  0
    4.2040   10.0650   55.8150 S   0  0  0  0  0  0  0  0  0  0  0  0
  1  3  2  0
  1  9  1  0
  2  4  1  0
  2  9  2  0
  3 10  1  0
  4 10  2  0
  5  7  2  0
  5 11  1  0
  6  8  1  0
  6 11  2  0
  7 12  1  0
  8 12  2  0
  9 13  1  0
 10 22  1  0
 11 25  1  0
 12 30  1  0
 13 25  1  0
 13 26  2  0
 14 15  1  0
 14 16  1  0
 15 17  1  0
 16 24  1  0
 17 24  1  0
 18 20  1  0
 18 23  1  0
 19 21  1  0
 19 23  1  0
 20 29  1  0
 21 29  1  0
 22 23  1  0
 24 30  1  0
 27 30  2  0
 28 30  2  0
M  CHG  1  23   1
M  END
>  <washed_aromatic_smiles>  (790) 
c1cc(ccc1CN2CCOCC2)C(=O)Nc3ccc(cc3)S(=O)(=O)N4CCCC4

>  <name>  (790) 
neg326516

$$$$
neg192580
     RDKit          3D

 27 28  0  0  0  0  0  0  0  0999 V2000
    2.4890    2.4830   50.0430 C   0  0  0  0  0  0  0  0  0  0  0  0
    1.4990    3.3640   48.0260 C   0  0  0  0  0  0  0  0  0  0  0  0
    5.4110   10.7960   56.2900 C   0  0  0  0  0  0  0  0  0  0  0  0
    5.3360   12.3980   54.4790 C   0  0  0  0  0  0  0  0  0  0  0  0
    1.7080    1.3360   49.9340 C   0  0  0  0  0  0  0  0  0  0  0  0
    0.7200    2.2180   47.8970 C   0  0  0  0  0  0  0  0  0  0  0  0
    5.3780   11.8230   57.2200 C   0  0  0  0  0  0  0  0  0  0  0  0
    5.2710   13.4300   55.4020 C   0  0  0  0  0  0  0  0  0  0  0  0
    2.4050    3.4960   49.0800 C   0  0  0  0  0  0  0  0  0  0  0  0
    5.4670   11.0840   54.9210 C   0  0  0  0  0  0  0  0  0  0  0  0
    0.8430    1.2200   48.8540 C   0  0  0  0  0  0  0  0  0  0  0  0
    5.3810   13.1260   56.7520 C   0  0  0  0  0  0  0  0  0  0  0  0
    2.2410    5.5530   51.2100 C   0  0  0  0  0  0  0  0  0  0  0  0
    4.0150    8.3140   54.2730 C   0  0  0  0  0  0  0  0  0  0  0  0
    3.2650    4.7500   49.1740 C   0  0  0  0  0  0  0  0  0  0  0  0
    5.7340    9.9930   53.9150 C   0  0  0  0  0  0  0  0  0  0  0  0
    0.7420    5.7160   51.3470 C   0  0  0  0  0  0  0  0  0  0  0  0
    2.8280    7.6460   53.6410 C   0  0  0  0  0  0  0  0  0  0  0  0
    0.1580    6.4970   52.5160 C   0  0  0  0  0  0  0  0  0  0  0  0
    1.5640    8.4440   53.9100 C   0  0  0  0  0  0  0  0  0  0  0  0
    2.6770    5.7900   49.9760 N   0  0  0  0  0  0  0  0  0  0  0  0
    4.5460    9.2900   53.5360 N   0  0  0  0  0  0  0  0  0  0  0  0
    2.8780    4.9270   52.0530 O   0  0  0  0  0  0  0  0  0  0  0  0
    4.4030    7.9770   55.3890 O   0  0  0  0  0  0  0  0  0  0  0  0
    0.0930    0.0960   48.7330 F   0  0  0  0  0  0  0  0  0  0  0  0
    5.5640   14.1130   57.6420 F   0  0  0  0  0  0  0  0  0  0  0  0
    0.3790    8.2970   52.5500 S   0  0  0  0  0  0  0  0  0  0  0  0
  1  5  2  0
  1  9  1  0
  2  6  1  0
  2  9  2  0
  3  7  2  0
  3 10  1  0
  4  8  1  0
  4 10  2  0
  5 11  1  0
  6 11  2  0
  7 12  1  0
  8 12  2  0
  9 15  1  0
 10 16  1  0
 11 25  1  0
 12 26  1  0
 13 17  1  0
 13 21  1  0
 13 23  2  0
 14 18  1  0
 14 22  1  0
 14 24  2  0
 15 21  1  0
 16 22  1  0
 17 19  1  0
 18 20  1  0
 19 27  1  0
 20 27  1  0
M  END
>  <washed_aromatic_smiles>  (791) 
c1cc(ccc1CNC(=O)CCSCCC(=O)NCc2ccc(cc2)F)F

>  <name>  (791) 
neg192580

$$$$
neg241325
     RDKit          3D

 29 30  0  0  0  0  0  0  0  0999 V2000
    0.8690    6.8840   52.6700 C   0  0  0  0  0  0  0  0  0  0  0  0
    2.8450    7.4240   51.4340 C   0  0  0  0  0  0  0  0  0  0  0  0
    3.0740    8.8860   55.3290 C   0  0  0  0  0  0  0  0  0  0  0  0
    4.1970   10.2230   53.6740 C   0  0  0  0  0  0  0  0  0  0  0  0
    0.7660    5.6890   51.9760 C   0  0  0  0  0  0  0  0  0  0  0  0
    2.8000    6.2080   50.7700 C   0  0  0  0  0  0  0  0  0  0  0  0
    3.9280    9.3680   56.3100 C   0  0  0  0  0  0  0  0  0  0  0  0
    5.0380   10.7430   54.6540 C   0  0  0  0  0  0  0  0  0  0  0  0
    1.9210    7.7490   52.4120 C   0  0  0  0  0  0  0  0  0  0  0  0
    3.1520    9.3630   54.0260 C   0  0  0  0  0  0  0  0  0  0  0  0
    1.7570    5.3370   51.0620 C   0  0  0  0  0  0  0  0  0  0  0  0
    4.8350   10.3840   55.9880 C   0  0  0  0  0  0  0  0  0  0  0  0
    2.3260    2.9960   51.1050 C   0  0  0  0  0  0  0  0  0  0  0  0
    5.0210   11.4300   58.2480 C   0  0  0  0  0  0  0  0  0  0  0  0
    2.0370   -0.7860   51.2860 C   0  0  0  0  0  0  0  0  0  0  0  0
    7.5840   14.0580   59.6900 C   0  0  0  0  0  0  0  0  0  0  0  0
    1.9950    9.0910   53.0830 C   0  0  0  0  0  0  0  0  0  0  0  0
    2.1760    1.6220   50.5160 C   0  0  0  0  0  0  0  0  0  0  0  0
    5.8370   12.2520   59.2220 C   0  0  0  0  0  0  0  0  0  0  0  0
    1.5460    0.6300   51.5110 C   0  0  0  0  0  0  0  0  0  0  0  0
    6.4770   13.5750   58.7480 C   0  0  0  0  0  0  0  0  0  0  0  0
    1.7390    4.0610   50.4760 N   0  0  0  0  0  0  0  0  0  0  0  0
    5.5190   11.1320   56.9950 N   0  0  0  0  0  0  0  0  0  0  0  0
    2.9250    3.1700   52.1480 O   0  0  0  0  0  0  0  0  0  0  0  0
    3.9510   10.9890   58.5880 O   0  0  0  0  0  0  0  0  0  0  0  0
    2.5990   -1.3590   52.2460 O   0  0  0  0  0  0  0  0  0  0  0  0
    8.4370   13.2170   60.0550 O   0  0  0  0  0  0  0  0  0  0  0  0
    1.8480   -1.2540   50.1440 O   0  0  0  0  0  0  0  0  0  0  0  0
    7.5490   15.2490   60.0610 O   0  0  0  0  0  0  0  0  0  0  0  0
  1  5  2  0
  1  9  1  0
  2  6  1  0
  2  9  2  0
  3  7  2  0
  3 10  1  0
  4  8  1  0
  4 10  2  0
  5 11  1  0
  6 11  2  0
  7 12  1  0
  8 12  2  0
  9 17  1  0
 10 17  1  0
 11 22  1  0
 12 23  1  0
 13 18  1  0
 13 22  1  0
 13 24  2  0
 14 19  1  0
 14 23  1  0
 14 25  2  0
 15 20  1  0
 15 26  1  0
 15 28  2  0
 16 21  1  0
 16 27  1  0
 16 29  2  0
 18 20  1  0
 19 21  1  0
M  CHG  2  26  -1  27  -1
M  END
>  <washed_aromatic_smiles>  (792) 
c1cc(ccc1Cc2ccc(cc2)NC(=O)CCC(=O)O)NC(=O)CCC(=O)O

>  <name>  (792) 
neg241325

$$$$
neg49297
     RDKit          3D

 25 27  0  0  0  0  0  0  0  0999 V2000
    4.2640   -0.6730   56.0480 C   0  0  0  0  0  0  0  0  0  0  0  0
    3.5230    1.6190   56.1770 C   0  0  0  0  0  0  0  0  0  0  0  0
    3.5380   -0.8170   54.8640 C   0  0  0  0  0  0  0  0  0  0  0  0
    2.8340    1.4500   54.9800 C   0  0  0  0  0  0  0  0  0  0  0  0
    4.2510    0.5570   56.6830 C   0  0  0  0  0  0  0  0  0  0  0  0
    2.8370    0.2380   54.3030 C   0  0  0  0  0  0  0  0  0  0  0  0
    1.0610    6.2330   51.4290 C   0  0  0  0  0  0  0  0  0  0  0  0
    3.1380    7.6600   54.6900 C   0  0  0  0  0  0  0  0  0  0  0  0
    3.9070    8.7660   53.9780 C   0  0  0  0  0  0  0  0  0  0  0  0
    1.7010    7.8370   54.2040 C   0  0  0  0  0  0  0  0  0  0  0  0
    3.0880    9.0740   52.7210 C   0  0  0  0  0  0  0  0  0  0  0  0
    1.4750    2.7560   49.7870 C   0  0  0  0  0  0  0  0  0  0  0  0
    2.7420    3.7050   51.5270 C   0  0  0  0  0  0  0  0  0  0  0  0
    1.2760    1.4120   50.5490 C   0  0  0  0  0  0  0  0  0  0  0  0
    3.1490    2.2280   51.8100 C   0  0  0  0  0  0  0  0  0  0  0  0
    1.8550    8.1690   52.7290 C   0  0  0  0  0  0  0  0  0  0  0  0
    1.3510    5.2260   50.2900 C   0  0  0  0  0  0  0  0  0  0  0  0
    1.5050    3.8360   50.7890 N   0  0  0  0  0  0  0  0  0  0  0  0
    1.9910    1.3670   51.8610 N   0  0  0  0  0  0  0  0  0  0  0  0
    2.0740    6.9710   51.9120 N   0  0  0  0  0  0  0  0  0  0  0  0
   -0.0840    6.3680   51.8560 O   0  0  0  0  0  0  0  0  0  0  0  0
    2.8040   -1.0040   51.9960 O   0  0  0  0  0  0  0  0  0  0  0  0
    0.6940   -0.4310   53.0060 O   0  0  0  0  0  0  0  0  0  0  0  0
    4.9590    0.7210   57.8280 F   0  0  0  0  0  0  0  0  0  0  0  0
    2.0240   -0.0550   52.7160 S   0  0  0  0  0  0  0  0  0  0  0  0
  1  3  2  0
  1  5  1  0
  2  4  1  0
  2  5  2  0
  3  6  1  0
  4  6  2  0
  5 24  1  0
  6 25  1  0
  7 17  1  0
  7 20  1  0
  7 21  2  0
  8  9  1  0
  8 10  1  0
  9 11  1  0
 10 16  1  0
 11 16  1  0
 12 14  1  0
 12 18  1  0
 13 15  1  0
 13 18  1  0
 14 19  1  0
 15 19  1  0
 16 20  1  0
 17 18  1  0
 19 25  1  0
 22 25  2  0
 23 25  2  0
M  END
>  <washed_aromatic_smiles>  (793) 
c1cc(ccc1F)S(=O)(=O)N2CCN(CC2)CC(=O)NC3CCCC3

>  <name>  (793) 
neg49297

$$$$
neg67030
     RDKit          3D

 26 28  0  0  0  0  0  0  0  0999 V2000
    1.7330    8.5450   55.1410 C   0  0  0  0  0  0  0  0  0  0  0  0
    3.6450    7.4270   54.1530 C   0  0  0  0  0  0  0  0  0  0  0  0
    2.5600    9.0810   56.1240 C   0  0  0  0  0  0  0  0  0  0  0  0
    4.4600    8.0070   55.0970 C   0  0  0  0  0  0  0  0  0  0  0  0
    2.2860    7.6670   54.2120 C   0  0  0  0  0  0  0  0  0  0  0  0
    3.9270    8.7930   56.1100 C   0  0  0  0  0  0  0  0  0  0  0  0
    0.6490    7.3350   52.4370 C   0  0  0  0  0  0  0  0  0  0  0  0
    3.5240    4.7200   48.5140 C   0  0  0  0  0  0  0  0  0  0  0  0
    2.6260    3.4960   48.3010 C   0  0  0  0  0  0  0  0  0  0  0  0
    4.9350   13.5020   54.9360 C   0  0  0  0  0  0  0  0  0  0  0  0
    3.7080    5.1640   49.9630 C   0  0  0  0  0  0  0  0  0  0  0  0
    1.3450    3.4940   49.1080 C   0  0  0  0  0  0  0  0  0  0  0  0
    5.4030   13.4080   56.3830 C   0  0  0  0  0  0  0  0  0  0  0  0
    5.5050   12.3060   54.1960 C   0  0  0  0  0  0  0  0  0  0  0  0
    2.6870    6.1080   50.5800 C   0  0  0  0  0  0  0  0  0  0  0  0
    0.8890    4.9120   49.4370 C   0  0  0  0  0  0  0  0  0  0  0  0
    4.8350   12.1630   57.0300 C   0  0  0  0  0  0  0  0  0  0  0  0
    5.2600   10.9810   54.9210 C   0  0  0  0  0  0  0  0  0  0  0  0
    0.2720    6.2480   51.4660 C   0  0  0  0  0  0  0  0  0  0  0  0
    1.3580    5.4510   50.7470 N   0  0  0  0  0  0  0  0  0  0  0  0
    5.3850   10.9730   56.4220 N   0  0  0  0  0  0  0  0  0  0  0  0
    1.5230    6.8930   53.3600 N   0  0  0  0  0  0  0  0  0  0  0  0
    0.2690    8.4880   52.4120 O   0  0  0  0  0  0  0  0  0  0  0  0
    4.4910    9.7770   58.4690 O   0  0  0  0  0  0  0  0  0  0  0  0
    6.2750    8.7330   57.2180 O   0  0  0  0  0  0  0  0  0  0  0  0
    5.1000    9.5390   57.2070 S   0  0  0  0  0  0  0  0  0  0  0  0
  1  3  2  0
  1  5  1  0
  2  4  1  0
  2  5  2  0
  3  6  1  0
  4  6  2  0
  5 22  1  0
  6 26  1  0
  7 19  1  0
  7 22  1  0
  7 23  2  0
  8  9  1  0
  8 11  1  0
  9 12  1  0
 10 13  1  0
 10 14  1  0
 11 15  1  0
 12 16  1  0
 13 17  1  0
 14 18  1  0
 15 20  1  0
 16 20  1  0
 17 21  1  0
 18 21  1  0
 19 20  1  0
 21 26  1  0
 24 26  2  0
 25 26  2  0
M  CHG  1  20   1
M  END
>  <washed_aromatic_smiles>  (794) 
c1cc(ccc1NC(=O)CN2CCCCCC2)S(=O)(=O)N3CCCCC3

>  <name>  (794) 
neg67030

$$$$
neg298742
     RDKit          3D

 27 29  0  0  0  0  0  0  0  0999 V2000
    1.2240    5.0000   49.7290 C   0  0  0  0  0  0  0  0  0  0  0  0
    3.3960    5.4960   50.6470 C   0  0  0  0  0  0  0  0  0  0  0  0
    1.8120    4.4870   48.5790 C   0  0  0  0  0  0  0  0  0  0  0  0
    3.9820    5.1060   49.4590 C   0  0  0  0  0  0  0  0  0  0  0  0
    5.4290   12.2350   55.3770 C   0  0  0  0  0  0  0  0  0  0  0  0
    5.4170   10.2760   56.7710 C   0  0  0  0  0  0  0  0  0  0  0  0
    5.4640   13.0300   56.5180 C   0  0  0  0  0  0  0  0  0  0  0  0
    5.4500   11.0740   57.9070 C   0  0  0  0  0  0  0  0  0  0  0  0
    2.0230    5.4230   50.7930 C   0  0  0  0  0  0  0  0  0  0  0  0
    3.1960    4.5150   48.4840 C   0  0  0  0  0  0  0  0  0  0  0  0
    5.5020   10.8480   55.4940 C   0  0  0  0  0  0  0  0  0  0  0  0
    5.6220   12.4450   57.7680 C   0  0  0  0  0  0  0  0  0  0  0  0
    0.5040    6.6020   52.3760 C   0  0  0  0  0  0  0  0  0  0  0  0
    2.8820    7.3740   54.2750 C   0  0  0  0  0  0  0  0  0  0  0  0
    2.2110    8.9600   52.6870 C   0  0  0  0  0  0  0  0  0  0  0  0
    3.9230    8.2780   54.8500 C   0  0  0  0  0  0  0  0  0  0  0  0
    3.5430    9.6850   52.8840 C   0  0  0  0  0  0  0  0  0  0  0  0
    0.5770    7.4560   53.6240 C   0  0  0  0  0  0  0  0  0  0  0  0
    1.7840    8.2170   53.8580 N   0  0  0  0  0  0  0  0  0  0  0  0
    4.4830    9.0650   53.7780 N   0  0  0  0  0  0  0  0  0  0  0  0
    1.5710    5.8120   52.0680 N   0  0  0  0  0  0  0  0  0  0  0  0
   -0.4560    6.6360   51.6620 O   0  0  0  0  0  0  0  0  0  0  0  0
    6.2490   10.6540   52.9670 O   0  0  0  0  0  0  0  0  0  0  0  0
    6.8230    8.8080   54.4270 O   0  0  0  0  0  0  0  0  0  0  0  0
    3.8070    3.9220   47.4460 F   0  0  0  0  0  0  0  0  0  0  0  0
    5.8860    9.8120   54.0610 S   0  0  0  0  0  0  0  0  0  0  0  0
    6.3140   13.4570   59.2140 Br  0  0  0  0  0  0  0  0  0  0  0  0
  1  3  2  0
  1  9  1  0
  2  4  1  0
  2  9  2  0
  3 10  1  0
  4 10  2  0
  5  7  2  0
  5 11  1  0
  6  8  1  0
  6 11  2  0
  7 12  1  0
  8 12  2  0
  9 21  1  0
 10 25  1  0
 11 26  1  0
 12 27  1  0
 13 18  1  0
 13 21  1  0
 13 22  2  0
 14 16  1  0
 14 19  1  0
 15 17  1  0
 15 19  1  0
 16 20  1  0
 17 20  1  0
 18 19  1  0
 20 26  1  0
 23 26  2  0
 24 26  2  0
M  END
>  <washed_aromatic_smiles>  (795) 
c1cc(ccc1NC(=O)CN2CCN(CC2)S(=O)(=O)c3ccc(cc3)Br)F

>  <name>  (795) 
neg298742

$$$$
neg179161
     RDKit          3D

 26 27  0  0  0  0  0  0  0  0999 V2000
    1.1240    1.4510   48.4190 C   0  0  0  0  0  0  0  0  0  0  0  0
    0.7960    1.2010   50.7950 C   0  0  0  0  0  0  0  0  0  0  0  0
    4.7430   10.4420   53.6590 C   0  0  0  0  0  0  0  0  0  0  0  0
    3.5860    9.4790   55.5650 C   0  0  0  0  0  0  0  0  0  0  0  0
    0.2140    0.4390   48.1880 C   0  0  0  0  0  0  0  0  0  0  0  0
   -0.1940    0.2530   50.5490 C   0  0  0  0  0  0  0  0  0  0  0  0
    5.2560   11.4430   54.4750 C   0  0  0  0  0  0  0  0  0  0  0  0
    4.1010   10.4820   56.3800 C   0  0  0  0  0  0  0  0  0  0  0  0
    1.3770    1.8730   49.7140 C   0  0  0  0  0  0  0  0  0  0  0  0
    3.8990    9.4730   54.2020 C   0  0  0  0  0  0  0  0  0  0  0  0
   -0.5490   -0.0910   49.2350 C   0  0  0  0  0  0  0  0  0  0  0  0
    4.9260   11.4700   55.8340 C   0  0  0  0  0  0  0  0  0  0  0  0
    2.6010    3.7130   50.9140 C   0  0  0  0  0  0  0  0  0  0  0  0
    2.0750    6.6250   52.5020 C   0  0  0  0  0  0  0  0  0  0  0  0
    2.9510    5.1760   50.7140 C   0  0  0  0  0  0  0  0  0  0  0  0
    2.4510    7.4800   53.6910 C   0  0  0  0  0  0  0  0  0  0  0  0
   -3.1190   -0.1860   50.0390 N   0  0  0  0  0  0  0  0  0  0  0  0
    2.0970    3.0900   49.8060 N   0  0  0  0  0  0  0  0  0  0  0  0
    2.7990    3.0990   51.9430 O   0  0  0  0  0  0  0  0  0  0  0  0
    0.9310    6.5470   52.0510 O   0  0  0  0  0  0  0  0  0  0  0  0
   -2.3870    0.1390   47.5860 O   0  0  0  0  0  0  0  0  0  0  0  0
   -2.5600   -1.9840   48.7000 O   0  0  0  0  0  0  0  0  0  0  0  0
    3.3750    8.5360   53.3330 O   0  0  0  0  0  0  0  0  0  0  0  0
    3.0830    5.9330   51.9430 O   0  0  0  0  0  0  0  0  0  0  0  0
   -2.2360   -0.6070   48.7630 S   0  0  0  0  0  0  0  0  0  0  0  0
    5.5310   12.7440   56.8390 Cl  0  0  0  0  0  0  0  0  0  0  0  0
  1  5  2  0
  1  9  1  0
  2  6  1  0
  2  9  2  0
  3  7  2  0
  3 10  1  0
  4  8  1  0
  4 10  2  0
  5 11  1  0
  6 11  2  0
  7 12  1  0
  8 12  2  0
  9 18  1  0
 10 23  1  0
 11 25  1  0
 12 26  1  0
 13 15  1  0
 13 18  1  0
 13 19  2  0
 14 16  1  0
 14 20  2  0
 14 24  1  0
 15 24  1  0
 16 23  1  0
 17 25  1  0
 21 25  2  0
 22 25  2  0
M  END
>  <washed_aromatic_smiles>  (796) 
c1cc(ccc1NC(=O)COC(=O)COc2ccc(cc2)Cl)S(=O)(=O)N

>  <name>  (796) 
neg179161

$$$$
neg268421
     RDKit          3D

 25 27  0  0  0  0  0  0  0  0999 V2000
    4.4060    7.6070   56.7750 C   0  0  0  0  0  0  0  0  0  0  0  0
    3.1980    9.6910   56.5140 C   0  0  0  0  0  0  0  0  0  0  0  0
    5.1500    8.1590   57.8070 C   0  0  0  0  0  0  0  0  0  0  0  0
    3.9460   10.2510   57.5420 C   0  0  0  0  0  0  0  0  0  0  0  0
    1.3700    4.9080   50.9760 C   0  0  0  0  0  0  0  0  0  0  0  0
    0.8380    6.1310   51.3490 C   0  0  0  0  0  0  0  0  0  0  0  0
    3.1550    5.2080   52.5220 C   0  0  0  0  0  0  0  0  0  0  0  0
    2.6640    6.4870   52.8910 C   0  0  0  0  0  0  0  0  0  0  0  0
    3.4560    8.3840   56.1020 C   0  0  0  0  0  0  0  0  0  0  0  0
    4.9240    9.4830   58.1700 C   0  0  0  0  0  0  0  0  0  0  0  0
    2.4840    4.3610   51.6100 C   0  0  0  0  0  0  0  0  0  0  0  0
    1.4490    6.9100   52.3270 C   0  0  0  0  0  0  0  0  0  0  0  0
    3.3830    7.3280   53.8670 C   0  0  0  0  0  0  0  0  0  0  0  0
    0.2210   -0.0430   51.2920 C   0  0  0  0  0  0  0  0  0  0  0  0
    1.1750   -0.4390   52.4380 C   0  0  0  0  0  0  0  0  0  0  0  0
    0.3870    1.4250   51.0770 C   0  0  0  0  0  0  0  0  0  0  0  0
    1.7760    0.8450   52.9010 C   0  0  0  0  0  0  0  0  0  0  0  0
    1.6040    1.7120   51.7470 N   0  0  0  0  0  0  0  0  0  0  0  0
    2.7490    7.8470   54.9820 N   0  0  0  0  0  0  0  0  0  0  0  0
    4.5650    7.6130   53.7760 O   0  0  0  0  0  0  0  0  0  0  0  0
    2.7670    2.5150   49.7070 O   0  0  0  0  0  0  0  0  0  0  0  0
    3.9690    2.0370   51.7610 O   0  0  0  0  0  0  0  0  0  0  0  0
    5.6710   10.0270   59.1660 O   0  0  0  0  0  0  0  0  0  0  0  0
    2.8210    2.5830   51.1310 S   0  0  0  0  0  0  0  0  0  0  0  0
    0.6510    8.3800   52.8200 Cl  0  0  0  0  0  0  0  0  0  0  0  0
  1  3  2  0
  1  9  1  0
  2  4  1  0
  2  9  2  0
  3 10  1  0
  4 10  2  0
  5  6  2  0
  5 11  1  0
  6 12  1  0
  7  8  1  0
  7 11  2  0
  8 12  2  0
  8 13  1  0
  9 19  1  0
 10 23  1  0
 11 24  1  0
 12 25  1  0
 13 19  1  0
 13 20  2  0
 14 15  1  0
 14 16  1  0
 15 17  1  0
 16 18  1  0
 17 18  1  0
 18 24  1  0
 21 24  2  0
 22 24  2  0
M  END
>  <washed_aromatic_smiles>  (797) 
c1cc(ccc1NC(=O)c2cc(ccc2Cl)S(=O)(=O)N3CCCC3)O

>  <name>  (797) 
neg268421

$$$$
neg13457
     RDKit          3D

 25 27  0  0  0  0  0  0  0  0999 V2000
    3.0860    4.6840   52.4920 C   0  0  0  0  0  0  0  0  0  0  0  0
    2.7300    5.6500   50.3450 C   0  0  0  0  0  0  0  0  0  0  0  0
    3.3180    5.9370   53.0360 C   0  0  0  0  0  0  0  0  0  0  0  0
    2.9700    6.9010   50.9110 C   0  0  0  0  0  0  0  0  0  0  0  0
    2.7340    4.5340   51.1670 C   0  0  0  0  0  0  0  0  0  0  0  0
    3.1480    7.0850   52.2910 C   0  0  0  0  0  0  0  0  0  0  0  0
    1.9150   -0.1230   50.2600 C   0  0  0  0  0  0  0  0  0  0  0  0
    1.0320   -0.6770   49.3870 C   0  0  0  0  0  0  0  0  0  0  0  0
    0.1930    1.3040   51.1220 C   0  0  0  0  0  0  0  0  0  0  0  0
    1.5300    1.0490   50.9600 C   0  0  0  0  0  0  0  0  0  0  0  0
   -0.2950   -0.1510   49.2930 C   0  0  0  0  0  0  0  0  0  0  0  0
    2.5250    2.0240   51.3100 C   0  0  0  0  0  0  0  0  0  0  0  0
    4.6700    9.0310   57.4640 C   0  0  0  0  0  0  0  0  0  0  0  0
    4.2190    7.7410   56.8010 C   0  0  0  0  0  0  0  0  0  0  0  0
    5.3980    9.7360   56.3340 C   0  0  0  0  0  0  0  0  0  0  0  0
    3.2470    8.0550   55.6430 C   0  0  0  0  0  0  0  0  0  0  0  0
    4.5630    9.9340   55.0640 C   0  0  0  0  0  0  0  0  0  0  0  0
   -0.7030    0.6700   50.3220 N   0  0  0  0  0  0  0  0  0  0  0  0
    3.9520    8.6890   54.5520 N   0  0  0  0  0  0  0  0  0  0  0  0
    2.3630    3.2610   50.6760 N   0  0  0  0  0  0  0  0  0  0  0  0
   -1.1190   -0.4030   48.4160 O   0  0  0  0  0  0  0  0  0  0  0  0
    3.4890    1.7860   52.0320 O   0  0  0  0  0  0  0  0  0  0  0  0
    4.1620    9.5110   52.2270 O   0  0  0  0  0  0  0  0  0  0  0  0
    1.9400    9.2530   53.1380 O   0  0  0  0  0  0  0  0  0  0  0  0
    3.2690    8.7550   53.0230 S   0  0  0  0  0  0  0  0  0  0  0  0
  1  3  2  0
  1  5  1  0
  2  4  1  0
  2  5  2  0
  3  6  1  0
  4  6  2  0
  5 20  1  0
  6 25  1  0
  7  8  2  0
  7 10  1  0
  8 11  1  0
  9 10  2  0
  9 18  1  0
 10 12  1  0
 11 18  1  0
 11 21  2  0
 12 20  1  0
 12 22  2  0
 13 14  1  0
 13 15  1  0
 14 16  1  0
 15 17  1  0
 16 19  1  0
 17 19  1  0
 19 25  1  0
 23 25  2  0
 24 25  2  0
M  END
>  <washed_aromatic_smiles>  (798) 
c1cc(ccc1NC(=O)c2ccc(=O)[nH]c2)S(=O)(=O)N3CCCCC3

>  <name>  (798) 
neg13457

$$$$
neg9624
     RDKit          3D

 26 28  0  0  0  0  0  0  0  0999 V2000
    2.7750    7.0960   51.1250 C   0  0  0  0  0  0  0  0  0  0  0  0
    1.0320    5.4460   51.2740 C   0  0  0  0  0  0  0  0  0  0  0  0
    2.2780    7.7390   52.2450 C   0  0  0  0  0  0  0  0  0  0  0  0
    0.4850    6.1240   52.3460 C   0  0  0  0  0  0  0  0  0  0  0  0
    2.8550    2.0950   52.5810 C   0  0  0  0  0  0  0  0  0  0  0  0
    2.1220    0.3770   51.1150 C   0  0  0  0  0  0  0  0  0  0  0  0
    2.8350    2.9970   51.5450 C   0  0  0  0  0  0  0  0  0  0  0  0
    2.0890    1.2950   50.0600 C   0  0  0  0  0  0  0  0  0  0  0  0
    2.2120    5.8970   50.6310 C   0  0  0  0  0  0  0  0  0  0  0  0
    1.1270    7.2510   52.8460 C   0  0  0  0  0  0  0  0  0  0  0  0
    2.5010    0.7790   52.4000 C   0  0  0  0  0  0  0  0  0  0  0  0
    2.4600    2.6240   50.2630 C   0  0  0  0  0  0  0  0  0  0  0  0
    3.2480    1.3800   55.9290 C   0  0  0  0  0  0  0  0  0  0  0  0
    4.2280   -0.8230   55.8450 C   0  0  0  0  0  0  0  0  0  0  0  0
    4.4060    1.7100   56.9090 C   0  0  0  0  0  0  0  0  0  0  0  0
    5.2460   -0.3990   56.9160 C   0  0  0  0  0  0  0  0  0  0  0  0
    3.5300    0.2080   55.0440 N   0  0  0  0  0  0  0  0  0  0  0  0
    2.8110    5.2510   49.6210 N   0  0  0  0  0  0  0  0  0  0  0  0
    1.1650   -0.4340   54.2510 O   0  0  0  0  0  0  0  0  0  0  0  0
    3.0050   -1.5820   53.2760 O   0  0  0  0  0  0  0  0  0  0  0  0
    1.1090    3.8740   48.4060 O   0  0  0  0  0  0  0  0  0  0  0  0
    3.4740    3.4870   48.0010 O   0  0  0  0  0  0  0  0  0  0  0  0
    4.7190    0.6170   57.7390 O   0  0  0  0  0  0  0  0  0  0  0  0
    0.6270    7.8880   53.9030 F   0  0  0  0  0  0  0  0  0  0  0  0
    2.4950   -0.3640   53.7850 S   0  0  0  0  0  0  0  0  0  0  0  0
    2.4390    3.8390   48.9280 S   0  0  2  0  0  0  0  0  0  0  0  0
  1  3  2  0
  1  9  1  0
  2  4  1  0
  2  9  2  0
  3 10  1  0
  4 10  2  0
  5  7  2  0
  5 11  1  0
  6  8  1  0
  6 11  2  0
  7 12  1  0
  8 12  2  0
  9 18  1  0
 10 24  1  0
 11 25  1  0
 12 26  1  0
 13 15  1  0
 13 17  1  0
 14 16  1  0
 14 17  1  0
 15 23  1  0
 16 23  1  0
 17 25  1  0
 18 26  2  0
 19 25  2  0
 20 25  2  0
 21 26  2  0
 26 22  1  6
M  CHG  1  22  -1
M  END
>  <washed_aromatic_smiles>  (799) 
c1cc(ccc1NS(=O)(=O)c2ccc(cc2)S(=O)(=O)N3CCOCC3)F

>  <name>  (799) 
neg9624

$$$$
neg279481
     RDKit          3D

 26 28  0  0  0  0  0  0  0  0999 V2000
    1.7560    7.7870   52.5070 C   0  0  0  0  0  0  0  0  0  0  0  0
    3.6180    6.4400   53.2060 C   0  0  0  0  0  0  0  0  0  0  0  0
    2.4390    8.9410   52.9350 C   0  0  0  0  0  0  0  0  0  0  0  0
    4.2660    7.5800   53.6260 C   0  0  0  0  0  0  0  0  0  0  0  0
    2.3880    6.5460   52.6030 C   0  0  0  0  0  0  0  0  0  0  0  0
    3.7280    8.8450   53.4840 C   0  0  0  0  0  0  0  0  0  0  0  0
    1.3270    3.2700   50.9500 C   0  0  0  0  0  0  0  0  0  0  0  0
    1.7690    3.4040   47.4380 C   0  0  0  0  0  0  0  0  0  0  0  0
    0.8070    2.3500   47.9800 C   0  0  0  0  0  0  0  0  0  0  0  0
    4.8670    9.2620   58.4860 C   0  0  0  0  0  0  0  0  0  0  0  0
    3.1340    3.8030   48.0390 C   0  0  0  0  0  0  0  0  0  0  0  0
    1.3870    1.1940   48.7750 C   0  0  0  0  0  0  0  0  0  0  0  0
    5.9140    8.6270   57.6040 C   0  0  0  0  0  0  0  0  0  0  0  0
    4.5340   10.6630   57.9670 C   0  0  0  0  0  0  0  0  0  0  0  0
    3.0270    4.1280   49.4970 C   0  0  0  0  0  0  0  0  0  0  0  0
    2.5330    1.6190   49.7360 C   0  0  0  0  0  0  0  0  0  0  0  0
    5.5010    8.7070   56.1370 C   0  0  0  0  0  0  0  0  0  0  0  0
    4.0460   10.6250   56.5090 C   0  0  0  0  0  0  0  0  0  0  0  0
    0.9530    4.7410   51.3180 C   0  0  0  0  0  0  0  0  0  0  0  0
    2.4080    3.0220   50.2260 N   0  0  0  0  0  0  0  0  0  0  0  0
    5.0370   10.0130   55.6180 N   0  0  0  0  0  0  0  0  0  0  0  0
    0.6460    2.2840   51.2830 O   0  0  0  0  0  0  0  0  0  0  0  0
    6.1530    9.8480   53.3600 O   0  0  0  0  0  0  0  0  0  0  0  0
    4.3560   11.4320   53.6020 O   0  0  0  0  0  0  0  0  0  0  0  0
    1.9670    5.3500   52.1040 O   0  0  0  0  0  0  0  0  0  0  0  0
    4.8910   10.1600   53.9480 S   0  0  0  0  0  0  0  0  0  0  0  0
  1  3  2  0
  1  5  1  0
  2  4  1  0
  2  5  2  0
  3  6  1  0
  4  6  2  0
  5 25  1  0
  6 26  1  0
  7 19  1  0
  7 20  1  0
  7 22  2  0
  8  9  1  0
  8 11  1  0
  9 12  1  0
 10 13  1  0
 10 14  1  0
 11 15  1  0
 12 16  1  0
 13 17  1  0
 14 18  1  0
 15 20  1  0
 16 20  1  0
 17 21  1  0
 18 21  1  0
 19 25  1  0
 21 26  1  0
 23 26  2  0
 24 26  2  0
M  END
>  <washed_aromatic_smiles>  (800) 
c1cc(ccc1OCC(=O)N2CCCCCC2)S(=O)(=O)N3CCCCC3

>  <name>  (800) 
neg279481

$$$$
neg49885
     RDKit          3D

 25 27  0  0  0  0  0  0  0  0999 V2000
    1.1010    2.2320   48.8230 C   0  0  0  0  0  0  0  0  0  0  0  0
    1.1030    0.8780   49.1550 C   0  0  0  0  0  0  0  0  0  0  0  0
    1.6780    8.3160   54.4950 C   0  0  0  0  0  0  0  0  0  0  0  0
    3.7820    7.4050   53.8190 C   0  0  0  0  0  0  0  0  0  0  0  0
    2.2990    8.9200   55.5880 C   0  0  0  0  0  0  0  0  0  0  0  0
    4.4170    8.0790   54.8590 C   0  0  0  0  0  0  0  0  0  0  0  0
    2.2170    2.7440   50.9310 C   0  0  0  0  0  0  0  0  0  0  0  0
    1.6510    3.1480   49.7250 C   0  0  0  0  0  0  0  0  0  0  0  0
    1.6510    0.4720   50.3730 C   0  0  0  0  0  0  0  0  0  0  0  0
    2.1730    1.4120   51.2720 C   0  0  0  0  0  0  0  0  0  0  0  0
    2.4180    7.5460   53.5950 C   0  0  0  0  0  0  0  0  0  0  0  0
    3.6730    8.8280   55.7590 C   0  0  0  0  0  0  0  0  0  0  0  0
    2.8630    5.0830   49.2020 C   0  0  0  0  0  0  0  0  0  0  0  0
    2.4860   -1.2370   51.8440 C   0  0  0  0  0  0  0  0  0  0  0  0
    2.3190   -0.2510   52.9870 C   0  0  0  0  0  0  0  0  0  0  0  0
    3.4800    5.9780   50.2540 C   0  0  0  0  0  0  0  0  0  0  0  0
    1.6600    4.5250   49.4820 N   0  0  0  0  0  0  0  0  0  0  0  0
    2.6730    7.0250   50.8880 N   0  0  0  0  0  0  0  0  0  0  0  0
    3.4910    4.6850   48.2390 O   0  0  0  0  0  0  0  0  0  0  0  0
    1.5670    5.3850   52.3760 O   0  0  0  0  0  0  0  0  0  0  0  0
    0.4040    7.4370   51.9520 O   0  0  0  0  0  0  0  0  0  0  0  0
    1.7010   -0.8650   50.6860 O   0  0  0  0  0  0  0  0  0  0  0  0
    2.6400    1.0610   52.5230 O   0  0  0  0  0  0  0  0  0  0  0  0
    1.6420    6.7730   52.1620 S   0  0  0  0  0  0  0  0  0  0  0  0
    4.5160    9.6930   57.2160 Br  0  0  0  0  0  0  0  0  0  0  0  0
  1  2  2  0
  1  8  1  0
  2  9  1  0
  3  5  2  0
  3 11  1  0
  4  6  1  0
  4 11  2  0
  5 12  1  0
  6 12  2  0
  7  8  2  0
  7 10  1  0
  8 17  1  0
  9 10  2  0
  9 22  1  0
 10 23  1  0
 11 24  1  0
 12 25  1  0
 13 16  1  0
 13 17  1  0
 13 19  2  0
 14 15  1  0
 14 22  1  0
 15 23  1  0
 16 18  1  0
 18 24  1  0
 20 24  2  0
 21 24  2  0
M  END
>  <washed_aromatic_smiles>  (801) 
c1cc(ccc1S(=O)(=O)NCC(=O)Nc2ccc3c(c2)OCCO3)Br

>  <name>  (801) 
neg49885

$$$$
neg294152
     RDKit          3D

 25 27  0  0  0  0  0  0  0  0999 V2000
    0.8440    8.3980   54.3740 C   0  0  0  0  0  0  0  0  0  0  0  0
    1.0350    1.9690   47.6360 C   0  0  0  0  0  0  0  0  0  0  0  0
    0.9550    7.6680   53.2030 C   0  0  0  0  0  0  0  0  0  0  0  0
    1.8660    1.4390   48.6040 C   0  0  0  0  0  0  0  0  0  0  0  0
    1.9850    8.6680   55.1250 C   0  0  0  0  0  0  0  0  0  0  0  0
   -0.1070    1.2830   47.2900 C   0  0  0  0  0  0  0  0  0  0  0  0
    3.3030    7.5050   53.6490 C   0  0  0  0  0  0  0  0  0  0  0  0
    0.3640   -0.3750   48.8180 C   0  0  0  0  0  0  0  0  0  0  0  0
    2.2120    7.2170   52.8310 C   0  0  0  0  0  0  0  0  0  0  0  0
    1.5000    0.2690   49.2870 C   0  0  0  0  0  0  0  0  0  0  0  0
    1.9680    4.0740   50.9760 C   0  0  0  0  0  0  0  0  0  0  0  0
    0.5730    1.8860   51.3580 C   0  0  0  0  0  0  0  0  0  0  0  0
    2.9100    2.1830   52.5770 C   0  0  0  0  0  0  0  0  0  0  0  0
    0.4920    0.5860   52.1190 C   0  0  0  0  0  0  0  0  0  0  0  0
    2.6300    0.7690   53.0830 C   0  0  0  0  0  0  0  0  0  0  0  0
    2.0070    2.5970   51.3850 C   0  0  0  0  0  0  0  0  0  0  0  0
    2.3790    6.4120   51.5680 C   0  0  0  0  0  0  0  0  0  0  0  0
    3.1850    8.2190   54.7670 N   0  0  0  0  0  0  0  0  0  0  0  0
   -0.4200    0.1350   47.8740 N   0  0  0  0  0  0  0  0  0  0  0  0
    1.7920    0.0300   52.1500 N   0  0  0  0  0  0  0  0  0  0  0  0
    2.4370    4.9850   51.8330 N   0  0  0  0  0  0  0  0  0  0  0  0
    1.5050    4.3710   49.8770 O   0  0  0  0  0  0  0  0  0  0  0  0
    2.0730   -1.8540   50.6580 O   0  0  0  0  0  0  0  0  0  0  0  0
    3.7940   -0.1840   50.6630 O   0  0  0  0  0  0  0  0  0  0  0  0
    2.4060   -0.5070   50.7170 S   0  0  0  0  0  0  0  0  0  0  0  0
  1  3  2  0
  1  5  1  0
  2  4  2  0
  2  6  1  0
  3  9  1  0
  4 10  1  0
  5 18  2  0
  6 19  2  0
  7  9  2  0
  7 18  1  0
  8 10  2  0
  8 19  1  0
  9 17  1  0
 10 25  1  0
 11 16  1  0
 11 21  1  0
 11 22  2  0
 12 14  1  0
 12 16  1  0
 13 15  1  0
 13 16  1  0
 14 20  1  0
 15 20  1  0
 17 21  1  0
 20 25  1  0
 23 25  2  0
 24 25  2  0
M  END
>  <washed_aromatic_smiles>  (802) 
c1cc(cnc1)CNC(=O)C2CCN(CC2)S(=O)(=O)c3cccnc3

>  <name>  (802) 
neg294152

$$$$
neg255678
     RDKit          3D

 27 29  0  0  0  0  0  0  0  0999 V2000
    4.6630    9.1640   56.4240 C   0  0  0  0  0  0  0  0  0  0  0  0
    4.5980    8.6170   55.1530 C   0  0  0  0  0  0  0  0  0  0  0  0
    1.7670    3.5180   51.0010 C   0  0  0  0  0  0  0  0  0  0  0  0
    1.4590    3.0510   48.6740 C   0  0  0  0  0  0  0  0  0  0  0  0
    1.8400    2.1830   51.2220 C   0  0  0  0  0  0  0  0  0  0  0  0
    1.8240    1.7160   48.9240 C   0  0  0  0  0  0  0  0  0  0  0  0
    3.4850    9.5010   57.0790 C   0  0  0  0  0  0  0  0  0  0  0  0
    2.2140    8.7830   55.2920 C   0  0  0  0  0  0  0  0  0  0  0  0
    3.3490    8.4190   54.5740 C   0  0  0  0  0  0  0  0  0  0  0  0
    1.4460    3.9550   49.7420 C   0  0  0  0  0  0  0  0  0  0  0  0
    2.1310    1.3010   50.2270 C   0  0  0  0  0  0  0  0  0  0  0  0
    2.0620    6.6330   51.4800 C   0  0  0  0  0  0  0  0  0  0  0  0
    2.3360    0.7130   55.1660 C   0  0  0  0  0  0  0  0  0  0  0  0
    1.8630   -0.6430   54.6150 C   0  0  0  0  0  0  0  0  0  0  0  0
    3.6820    0.7600   54.7380 C   0  0  0  0  0  0  0  0  0  0  0  0
    1.7260   -0.6120   53.1180 C   0  0  0  0  0  0  0  0  0  0  0  0
    3.6300    0.9960   53.2160 C   0  0  0  0  0  0  0  0  0  0  0  0
    3.2990    7.8470   53.1750 C   0  0  0  0  0  0  0  0  0  0  0  0
    0.7670    6.0340   50.9670 C   0  0  0  0  0  0  0  0  0  0  0  0
    2.2940    9.3030   56.5190 N   0  0  0  0  0  0  0  0  0  0  0  0
    2.9130   -0.1110   52.4840 N   0  0  0  0  0  0  0  0  0  0  0  0
    2.0510    7.2760   52.6630 N   0  0  0  0  0  0  0  0  0  0  0  0
    3.0990    6.4690   50.8420 O   0  0  0  0  0  0  0  0  0  0  0  0
    2.2560   -1.3030   50.3630 O   0  0  0  0  0  0  0  0  0  0  0  0
    4.3550   -0.0770   50.5060 O   0  0  0  0  0  0  0  0  0  0  0  0
    0.9550    5.2280   49.6830 O   0  0  0  0  0  0  0  0  0  0  0  0
    2.9760   -0.1730   50.8410 S   0  0  0  0  0  0  0  0  0  0  0  0
  1  2  2  0
  1  7  1  0
  2  9  1  0
  3  5  2  0
  3 10  1  0
  4  6  1  0
  4 10  2  0
  5 11  1  0
  6 11  2  0
  7 20  2  0
  8  9  2  0
  8 20  1  0
  9 18  1  0
 10 26  1  0
 11 27  1  0
 12 19  1  0
 12 22  1  0
 12 23  2  0
 13 14  1  0
 13 15  1  0
 14 16  1  0
 15 17  1  0
 16 21  1  0
 17 21  1  0
 18 22  1  0
 19 26  1  0
 21 27  1  0
 24 27  2  0
 25 27  2  0
M  END
>  <washed_aromatic_smiles>  (803) 
c1cc(cnc1)CNC(=O)COc2ccc(cc2)S(=O)(=O)N3CCCCC3

>  <name>  (803) 
neg255678

$$$$
neg201087
     RDKit          3D

 36 38  0  0  0  0  0  0  0  0999 V2000
    2.9500    3.9980   52.5650 C   0  0  0  0  0  0  0  0  0  0  0  0
    5.3620   11.9740   55.9850 C   0  0  0  0  0  0  0  0  0  0  0  0
    5.0710    9.8390   57.0900 C   0  0  0  0  0  0  0  0  0  0  0  0
    0.1560    1.5560   48.0470 C   0  0  0  0  0  0  0  0  0  0  0  0
    0.9550   -0.6820   48.3060 C   0  0  0  0  0  0  0  0  0  0  0  0
    5.4530   12.6070   57.2200 C   0  0  0  0  0  0  0  0  0  0  0  0
    5.1550   10.4620   58.3300 C   0  0  0  0  0  0  0  0  0  0  0  0
    0.4060    1.5100   46.6900 C   0  0  0  0  0  0  0  0  0  0  0  0
    1.3820   -0.6750   46.9800 C   0  0  0  0  0  0  0  0  0  0  0  0
    3.1920    5.3310   52.3760 C   0  0  0  0  0  0  0  0  0  0  0  0
    2.5110    3.2670   51.5230 C   0  0  0  0  0  0  0  0  0  0  0  0
    5.2010   10.5860   55.9160 C   0  0  0  0  0  0  0  0  0  0  0  0
    0.3530    0.4430   48.8620 C   0  0  0  0  0  0  0  0  0  0  0  0
    5.3750   11.8320   58.3710 C   0  0  0  0  0  0  0  0  0  0  0  0
    1.0500    0.4070   46.1780 C   0  0  0  0  0  0  0  0  0  0  0  0
    2.9510    5.8520   51.1110 C   0  0  0  0  0  0  0  0  0  0  0  0
    2.5700    3.7650   50.2450 C   0  0  0  0  0  0  0  0  0  0  0  0
    3.0720    7.2470   50.8640 C   0  0  0  0  0  0  0  0  0  0  0  0
    2.6370    2.8390   49.1540 C   0  0  0  0  0  0  0  0  0  0  0  0
    3.2590    8.5020   54.1930 C   0  0  0  0  0  0  0  0  0  0  0  0
    2.1490   -0.2280   51.0790 C   0  0  0  0  0  0  0  0  0  0  0  0
    5.2510    9.8820   54.5800 C   0  0  0  0  0  0  0  0  0  0  0  0
   -0.0640    0.4910   50.3290 C   0  0  0  0  0  0  0  0  0  0  0  0
    2.2410    8.2060   53.1230 C   0  0  0  0  0  0  0  0  0  0  0  0
    3.3200    0.6180   50.6120 C   0  0  0  0  0  0  0  0  0  0  0  0
    2.6990    5.0660   50.0530 N   0  0  0  0  0  0  0  0  0  0  0  0
    3.9580    9.6230   53.9790 N   0  0  0  0  0  0  0  0  0  0  0  0
    0.9910    0.3940   51.3260 N   0  0  0  0  0  0  0  0  0  0  0  0
    3.4460    7.6240   49.7780 O   0  0  0  0  0  0  0  0  0  0  0  0
    2.5390    3.1750   47.9870 O   0  0  0  0  0  0  0  0  0  0  0  0
    3.5160    7.7060   55.0940 O   0  0  0  0  0  0  0  0  0  0  0  0
    2.2180   -1.4460   51.0890 O   0  0  0  0  0  0  0  0  0  0  0  0
    2.8800    8.1880   51.8280 O   0  0  0  0  0  0  0  0  0  0  0  0
    2.9380    1.5330   49.4420 O   0  0  0  0  0  0  0  0  0  0  0  0
    5.5640   12.4240   59.5700 F   0  0  0  0  0  0  0  0  0  0  0  0
    1.3940    0.4380   44.8840 F   0  0  0  0  0  0  0  0  0  0  0  0
  1 10  2  0
  1 11  1  0
  2  6  2  0
  2 12  1  0
  3  7  1  0
  3 12  2  0
  4  8  2  0
  4 13  1  0
  5  9  1  0
  5 13  2  0
  6 14  1  0
  7 14  2  0
  8 15  1  0
  9 15  2  0
 10 16  1  0
 11 17  2  0
 12 22  1  0
 13 23  1  0
 14 35  1  0
 15 36  1  0
 16 18  1  0
 16 26  2  0
 17 19  1  0
 17 26  1  0
 18 29  2  0
 18 33  1  0
 19 30  2  0
 19 34  1  0
 20 24  1  0
 20 27  1  0
 20 31  2  0
 21 25  1  0
 21 28  1  0
 21 32  2  0
 22 27  1  0
 23 28  1  0
 24 33  1  0
 25 34  1  0
M  END
>  <washed_aromatic_smiles>  (804) 
c1cc(nc(c1)C(=O)OCC(=O)NCc2ccc(cc2)F)C(=O)OCC(=O)NCc3ccc(cc3)F

>  <name>  (804) 
neg201087

$$$$
neg106271
     RDKit          3D

 25 26  0  0  0  0  0  0  0  0999 V2000
    5.1980   10.2440   58.0010 C   0  0  0  0  0  0  0  0  0  0  0  0
    5.1070   11.1450   56.9460 C   0  0  0  0  0  0  0  0  0  0  0  0
    4.5870    8.4220   56.5140 C   0  0  0  0  0  0  0  0  0  0  0  0
    4.4280    9.3370   55.4640 C   0  0  0  0  0  0  0  0  0  0  0  0
    4.9760    8.8870   57.7720 C   0  0  0  0  0  0  0  0  0  0  0  0
    4.7600   10.6880   55.6710 C   0  0  0  0  0  0  0  0  0  0  0  0
    3.2160    7.8370   53.7960 C   0  0  0  0  0  0  0  0  0  0  0  0
    2.2940    4.2110   50.9530 C   0  0  0  0  0  0  0  0  0  0  0  0
    2.7820   -0.9630   52.4310 C   0  0  0  0  0  0  0  0  0  0  0  0
    3.3590   -0.5680   51.0780 C   0  0  0  0  0  0  0  0  0  0  0  0
    1.3850   -0.3920   52.4710 C   0  0  0  0  0  0  0  0  0  0  0  0
    3.4640    0.9420   50.9500 C   0  0  0  0  0  0  0  0  0  0  0  0
    1.4550    1.1000   52.4950 C   0  0  0  0  0  0  0  0  0  0  0  0
    2.2080    1.7280   51.3100 C   0  0  0  0  0  0  0  0  0  0  0  0
    5.3630    6.5990   58.7050 C   0  0  0  0  0  0  0  0  0  0  0  0
    5.0480   12.9680   54.6540 C   0  0  0  0  0  0  0  0  0  0  0  0
    2.4790    7.8730   52.4700 C   0  0  0  0  0  0  0  0  0  0  0  0
    2.8980    5.5250   51.4740 C   0  0  0  0  0  0  0  0  0  0  0  0
    1.8600    6.5350   51.9870 C   0  0  0  0  0  0  0  0  0  0  0  0
    3.8920    8.9830   54.1720 N   0  0  0  0  0  0  0  0  0  0  0  0
    2.6190    3.0960   51.6240 N   0  0  0  0  0  0  0  0  0  0  0  0
    3.1670    6.8720   54.5230 O   0  0  0  0  0  0  0  0  0  0  0  0
    1.5870    4.2060   49.9490 O   0  0  0  0  0  0  0  0  0  0  0  0
    5.1580    8.0270   58.8410 O   0  0  0  0  0  0  0  0  0  0  0  0
    4.7510   11.5560   54.5810 O   0  0  0  0  0  0  0  0  0  0  0  0
  1  2  2  0
  1  5  1  0
  2  6  1  0
  3  4  1  0
  3  5  2  0
  4  6  2  0
  4 20  1  0
  5 24  1  0
  6 25  1  0
  7 17  1  0
  7 20  1  0
  7 22  2  0
  8 18  1  0
  8 21  1  0
  8 23  2  0
  9 10  1  0
  9 11  1  0
 10 12  1  0
 11 13  1  0
 12 14  1  0
 13 14  1  0
 14 21  1  0
 15 24  1  0
 16 25  1  0
 17 19  1  0
 18 19  1  0
M  END
>  <washed_aromatic_smiles>  (805) 
COc1ccc(c(c1)NC(=O)CCCC(=O)NC2CCCCC2)OC

>  <name>  (805) 
neg106271

$$$$
neg175526
     RDKit          3D

 26 27  0  0  0  0  0  0  0  0999 V2000
    5.1340    9.2050   59.2240 C   0  0  0  0  0  0  0  0  0  0  0  0
    5.8660    8.5370   58.2680 C   0  0  0  0  0  0  0  0  0  0  0  0
    4.4800   10.3960   58.8970 C   0  0  0  0  0  0  0  0  0  0  0  0
    5.9840    9.0980   57.0130 C   0  0  0  0  0  0  0  0  0  0  0  0
    4.6170   10.9570   57.6660 C   0  0  0  0  0  0  0  0  0  0  0  0
    0.1960    6.6290   52.3110 C   0  0  0  0  0  0  0  0  0  0  0  0
    1.2440    5.9230   51.7400 C   0  0  0  0  0  0  0  0  0  0  0  0
    1.6910    7.5080   54.0010 C   0  0  0  0  0  0  0  0  0  0  0  0
    5.3910   10.3360   56.7210 C   0  0  0  0  0  0  0  0  0  0  0  0
    2.7690    6.9860   53.3160 C   0  0  0  0  0  0  0  0  0  0  0  0
    0.4790    7.4890   53.3680 C   0  0  0  0  0  0  0  0  0  0  0  0
    2.5430    6.1560   52.1970 C   0  0  0  0  0  0  0  0  0  0  0  0
    4.3230    8.7480   54.1230 C   0  0  0  0  0  0  0  0  0  0  0  0
   -0.1030    9.5110   52.6130 C   0  0  0  0  0  0  0  0  0  0  0  0
    3.5510    5.6100   50.0410 C   0  0  0  0  0  0  0  0  0  0  0  0
    6.5390   11.1230   51.7400 C   0  0  0  0  0  0  0  0  0  0  0  0
    5.5180   11.2150   55.5190 C   0  0  0  0  0  0  0  0  0  0  0  0
    5.7300    9.2710   53.9620 C   0  0  0  0  0  0  0  0  0  0  0  0
    4.0590    7.4660   53.6570 N   0  0  0  0  0  0  0  0  0  0  0  0
    5.9330   10.7190   54.2430 N   0  0  0  0  0  0  0  0  0  0  0  0
    3.4570    9.4630   54.5840 O   0  0  0  0  0  0  0  0  0  0  0  0
    4.1830   11.6500   52.7630 O   0  0  0  0  0  0  0  0  0  0  0  0
    6.0070   13.0680   53.3630 O   0  0  0  0  0  0  0  0  0  0  0  0
   -0.3030    8.5370   53.6580 O   0  0  0  0  0  0  0  0  0  0  0  0
    3.5890    5.6190   51.4960 O   0  0  0  0  0  0  0  0  0  0  0  0
    5.5590   11.7630   53.0480 S   0  0  0  0  0  0  0  0  0  0  0  0
  1  2  2  0
  1  3  1  0
  2  4  1  0
  3  5  2  0
  4  9  2  0
  5  9  1  0
  6  7  2  0
  6 11  1  0
  7 12  1  0
  8 10  1  0
  8 11  2  0
  9 17  1  0
 10 12  2  0
 10 19  1  0
 11 24  1  0
 12 25  1  0
 13 18  1  0
 13 19  1  0
 13 21  2  0
 14 24  1  0
 15 25  1  0
 16 26  1  0
 17 20  1  0
 18 20  1  0
 20 26  1  0
 22 26  2  0
 23 26  2  0
M  END
>  <washed_aromatic_smiles>  (806) 
COc1ccc(c(c1)NC(=O)CN(Cc2ccccc2)S(=O)(=O)C)OC

>  <name>  (806) 
neg175526

$$$$
neg90437
     RDKit          3D

 28 30  0  0  0  0  0  0  0  0999 V2000
    4.7080   11.0360   56.1030 C   0  0  0  0  0  0  0  0  0  0  0  0
    4.9360   10.7610   54.7570 C   0  0  0  0  0  0  0  0  0  0  0  0
    3.7310   10.3290   56.8020 C   0  0  0  0  0  0  0  0  0  0  0  0
    4.1960    9.7800   54.1070 C   0  0  0  0  0  0  0  0  0  0  0  0
    2.9840    9.3450   56.1640 C   0  0  0  0  0  0  0  0  0  0  0  0
    3.1740   -0.5440   55.1290 C   0  0  0  0  0  0  0  0  0  0  0  0
    2.9680   -0.9260   53.8050 C   0  0  0  0  0  0  0  0  0  0  0  0
    2.8470    1.7420   54.5160 C   0  0  0  0  0  0  0  0  0  0  0  0
    3.2220    9.0580   54.8150 C   0  0  0  0  0  0  0  0  0  0  0  0
    2.7940    1.3950   53.1740 C   0  0  0  0  0  0  0  0  0  0  0  0
    3.1280    0.7950   55.4680 C   0  0  0  0  0  0  0  0  0  0  0  0
    2.8180    0.0430   52.8230 C   0  0  0  0  0  0  0  0  0  0  0  0
    2.2260    2.7030   51.1000 C   0  0  0  0  0  0  0  0  0  0  0  0
    3.3470    6.9680   53.6340 C   0  0  0  0  0  0  0  0  0  0  0  0
    1.4430    8.5450   53.2850 C   0  0  0  0  0  0  0  0  0  0  0  0
    2.8460    6.1230   52.4360 C   0  0  0  0  0  0  0  0  0  0  0  0
    0.7560    7.4400   52.4780 C   0  0  0  0  0  0  0  0  0  0  0  0
    4.6720    0.8500   57.3590 C   0  0  0  0  0  0  0  0  0  0  0  0
    4.1010    0.0130   50.8740 C   0  0  0  0  0  0  0  0  0  0  0  0
    0.9690    5.5770   50.8350 C   0  0  0  0  0  0  0  0  0  0  0  0
    1.7670    4.7460   49.8080 C   0  0  0  0  0  0  0  0  0  0  0  0
    2.4810    8.0320   54.1900 N   0  0  0  0  0  0  0  0  0  0  0  0
    1.6960    6.6430   51.6260 N   0  0  0  0  0  0  0  0  0  0  0  0
    2.9440    2.4550   52.2440 N   0  0  0  0  0  0  0  0  0  0  0  0
    2.6870    3.8070   50.4320 N   0  0  0  0  0  0  0  0  0  0  0  0
    1.2480    2.0470   50.7480 O   0  0  0  0  0  0  0  0  0  0  0  0
    3.4350    1.2520   56.7290 O   0  0  0  0  0  0  0  0  0  0  0  0
    2.8760   -0.3550   51.5230 O   0  0  0  0  0  0  0  0  0  0  0  0
  1  2  2  0
  1  3  1  0
  2  4  1  0
  3  5  2  0
  4  9  2  0
  5  9  1  0
  6  7  2  0
  6 11  1  0
  7 12  1  0
  8 10  1  0
  8 11  2  0
  9 22  1  0
 10 12  2  0
 10 24  1  0
 11 27  1  0
 12 28  1  0
 13 24  1  0
 13 25  1  0
 13 26  2  0
 14 16  1  0
 14 22  1  0
 15 17  1  0
 15 22  1  0
 16 23  1  0
 17 23  1  0
 18 27  1  0
 19 28  1  0
 20 21  1  0
 20 23  1  0
 21 25  1  0
M  CHG  1  23   1
M  END
>  <washed_aromatic_smiles>  (807) 
COc1ccc(c(c1)NC(=O)NCCN2CCN(CC2)c3ccccc3)OC

>  <name>  (807) 
neg90437

$$$$
neg69152
     RDKit          3D

 31 33  0  0  0  0  0  0  0  0999 V2000
    0.1840    0.8500   47.4390 C   0  0  0  0  0  0  0  0  0  0  0  0
    0.8490    0.3800   48.5550 C   0  0  0  0  0  0  0  0  0  0  0  0
    0.3040    2.1710   47.0620 C   0  0  0  0  0  0  0  0  0  0  0  0
    1.5980    1.2560   49.3230 C   0  0  0  0  0  0  0  0  0  0  0  0
    1.0460    3.0560   47.8300 C   0  0  0  0  0  0  0  0  0  0  0  0
    2.4470    4.9650   49.6490 C   0  0  0  0  0  0  0  0  0  0  0  0
    2.5010    3.1950   51.2660 C   0  0  0  0  0  0  0  0  0  0  0  0
    2.8080    5.8860   50.6340 C   0  0  0  0  0  0  0  0  0  0  0  0
    2.8780    4.0980   52.2300 C   0  0  0  0  0  0  0  0  0  0  0  0
    5.1620   13.3910   55.8300 C   0  0  0  0  0  0  0  0  0  0  0  0
    5.4540   13.4590   57.1830 C   0  0  0  0  0  0  0  0  0  0  0  0
    5.0760   10.9820   55.9700 C   0  0  0  0  0  0  0  0  0  0  0  0
    1.6570    2.6310   49.0160 C   0  0  0  0  0  0  0  0  0  0  0  0
    2.2310    3.6040   49.9590 C   0  0  0  0  0  0  0  0  0  0  0  0
    5.2360   11.0460   57.3550 C   0  0  0  0  0  0  0  0  0  0  0  0
    2.9930    5.4480   51.9430 C   0  0  0  0  0  0  0  0  0  0  0  0
    5.0100   12.1460   55.2340 C   0  0  0  0  0  0  0  0  0  0  0  0
    5.5000   12.2950   57.9560 C   0  0  0  0  0  0  0  0  0  0  0  0
    2.7090    8.1230   54.5610 C   0  0  0  0  0  0  0  0  0  0  0  0
    4.8080    8.6020   57.5760 C   0  0  0  0  0  0  0  0  0  0  0  0
    5.2400   12.9050   52.9300 C   0  0  0  0  0  0  0  0  0  0  0  0
    6.5390   13.5540   59.8570 C   0  0  0  0  0  0  0  0  0  0  0  0
    2.9070    7.6700   53.1230 C   0  0  0  0  0  0  0  0  0  0  0  0
    5.1590    9.8380   58.1200 N   0  0  0  0  0  0  0  0  0  0  0  0
    3.6830    7.8700   55.4890 N   0  0  0  0  0  0  0  0  0  0  0  0
    3.6710    8.5640   56.7990 N   0  0  0  0  0  0  0  0  0  0  0  0
    1.7050    8.7310   54.9030 O   0  0  0  0  0  0  0  0  0  0  0  0
    5.5190    7.6110   57.7550 O   0  0  0  0  0  0  0  0  0  0  0  0
    4.7790   11.9960   53.9060 O   0  0  0  0  0  0  0  0  0  0  0  0
    5.8300   12.3860   59.3100 O   0  0  0  0  0  0  0  0  0  0  0  0
    3.3010    6.2800   53.0040 O   0  0  0  0  0  0  0  0  0  0  0  0
  1  2  2  0
  1  3  1  0
  2  4  1  0
  3  5  2  0
  4 13  2  0
  5 13  1  0
  6  8  2  0
  6 14  1  0
  7  9  1  0
  7 14  2  0
  8 16  1  0
  9 16  2  0
 10 11  2  0
 10 17  1  0
 11 18  1  0
 12 15  1  0
 12 17  2  0
 13 14  1  0
 15 18  2  0
 15 24  1  0
 16 31  1  0
 17 29  1  0
 18 30  1  0
 19 23  1  0
 19 25  1  0
 19 27  2  0
 20 24  1  0
 20 26  1  0
 20 28  2  0
 21 29  1  0
 22 30  1  0
 23 31  1  0
 25 26  1  0
M  END
>  <washed_aromatic_smiles>  (808) 
COc1ccc(c(c1)NC(=O)NNC(=O)COc2ccc(cc2)c3ccccc3)OC

>  <name>  (808) 
neg69152

$$$$
neg15089
     RDKit          3D

 25 26  0  0  0  0  0  0  0  0999 V2000
    0.3620    6.5940   51.8670 C   0  0  0  0  0  0  0  0  0  0  0  0
    0.6020    7.5270   52.8690 C   0  0  0  0  0  0  0  0  0  0  0  0
    2.9640    7.0330   52.7650 C   0  0  0  0  0  0  0  0  0  0  0  0
    1.4120    5.8570   51.2920 C   0  0  0  0  0  0  0  0  0  0  0  0
    1.8980    7.7210   53.3380 C   0  0  0  0  0  0  0  0  0  0  0  0
    2.7110    6.1560   51.7140 C   0  0  0  0  0  0  0  0  0  0  0  0
    1.2040    4.7180   50.4150 C   0  0  0  0  0  0  0  0  0  0  0  0
    1.4810    4.6600   49.0820 C   0  0  0  0  0  0  0  0  0  0  0  0
    1.4300    3.4720   48.2770 C   0  0  0  0  0  0  0  0  0  0  0  0
    0.1330    0.4590   49.6460 C   0  0  0  0  0  0  0  0  0  0  0  0
    3.3010    0.7790   52.9970 C   0  0  0  0  0  0  0  0  0  0  0  0
    2.1640    0.3160   53.8800 C   0  0  0  0  0  0  0  0  0  0  0  0
    2.9750    1.6050   51.7640 C   0  0  0  0  0  0  0  0  0  0  0  0
    1.2380   -0.5470   53.0550 C   0  0  0  0  0  0  0  0  0  0  0  0
    2.3940    0.7830   50.6160 C   0  0  0  0  0  0  0  0  0  0  0  0
    0.3800    0.2590   52.0640 C   0  0  0  0  0  0  0  0  0  0  0  0
    3.3440    8.8810   55.0040 C   0  0  0  0  0  0  0  0  0  0  0  0
    4.1380    5.6810   49.7260 C   0  0  0  0  0  0  0  0  0  0  0  0
    0.5710    1.1240   48.3660 C   0  0  0  0  0  0  0  0  0  0  0  0
    0.9590    0.4580   50.7200 N   0  0  0  0  0  0  0  0  0  0  0  0
    2.1410    3.2840   47.3160 O   0  0  0  0  0  0  0  0  0  0  0  0
   -1.0470    0.1560   49.7520 O   0  0  0  0  0  0  0  0  0  0  0  0
    2.0710    8.6000   54.3830 O   0  0  0  0  0  0  0  0  0  0  0  0
    3.7570    5.5280   51.1220 O   0  0  0  0  0  0  0  0  0  0  0  0
    0.5810    2.5230   48.6290 O   0  0  0  0  0  0  0  0  0  0  0  0
  1  2  2  0
  1  4  1  0
  2  5  1  0
  3  5  2  0
  3  6  1  0
  4  6  2  0
  4  7  1  0
  5 23  1  0
  6 24  1  0
  7  8  2  0
  8  9  1  0
  9 21  2  0
  9 25  1  0
 10 19  1  0
 10 20  1  0
 10 22  2  0
 11 12  1  0
 11 13  1  0
 12 14  1  0
 13 15  1  0
 14 16  1  0
 15 20  1  0
 16 20  1  0
 17 23  1  0
 18 24  1  0
 19 25  1  0
M  END
>  <washed_aromatic_smiles>  (809) 
COc1ccc(c(c1)OC)/C=C/C(=O)OCC(=O)N2CCCCCC2

>  <name>  (809) 
neg15089

$$$$
neg183551
     RDKit          3D

 30 32  0  0  0  0  0  0  0  0999 V2000
    1.1420    4.7220   47.9390 C   0  0  0  0  0  0  0  0  0  0  0  0
    1.8870   -0.7580   54.9340 C   0  0  0  0  0  0  0  0  0  0  0  0
    2.0930    3.7310   47.8340 C   0  0  0  0  0  0  0  0  0  0  0  0
    0.6830    5.1100   49.1820 C   0  0  0  0  0  0  0  0  0  0  0  0
    1.1000   -0.8670   53.8010 C   0  0  0  0  0  0  0  0  0  0  0  0
    2.6980    0.3330   55.1380 C   0  0  0  0  0  0  0  0  0  0  0  0
    2.6080    3.1820   48.9790 C   0  0  0  0  0  0  0  0  0  0  0  0
    1.1190    4.5280   50.3090 C   0  0  0  0  0  0  0  0  0  0  0  0
    4.9930    8.2950   54.0150 C   0  0  0  0  0  0  0  0  0  0  0  0
    5.3230    9.6280   53.8000 C   0  0  0  0  0  0  0  0  0  0  0  0
    1.2940   -0.0250   52.7410 C   0  0  0  0  0  0  0  0  0  0  0  0
    2.7530    1.2590   54.1370 C   0  0  0  0  0  0  0  0  0  0  0  0
    3.0700   10.0150   53.0260 C   0  0  0  0  0  0  0  0  0  0  0  0
    2.1160    3.6110   50.2190 C   0  0  0  0  0  0  0  0  0  0  0  0
    3.6910    7.8400   53.7430 C   0  0  0  0  0  0  0  0  0  0  0  0
    4.3570   10.4790   53.2690 C   0  0  0  0  0  0  0  0  0  0  0  0
    2.6970    8.7600   53.4480 C   0  0  0  0  0  0  0  0  0  0  0  0
    2.2220    0.9750   52.9020 C   0  0  0  0  0  0  0  0  0  0  0  0
    2.6600    5.9150   52.5290 C   0  0  0  0  0  0  0  0  0  0  0  0
    5.7780   12.5060   53.4250 C   0  0  0  0  0  0  0  0  0  0  0  0
    0.2390    8.9270   52.9050 C   0  0  0  0  0  0  0  0  0  0  0  0
    3.0770    4.5000   52.1630 C   0  0  0  0  0  0  0  0  0  0  0  0
    3.4100    6.4550   53.5780 N   0  0  0  0  0  0  0  0  0  0  0  0
    2.5160    3.2510   51.4600 N   0  0  0  0  0  0  0  0  0  0  0  0
    1.9770    6.6180   51.8160 O   0  0  0  0  0  0  0  0  0  0  0  0
    4.4110    1.5400   51.7960 O   0  0  0  0  0  0  0  0  0  0  0  0
    2.5590    0.8860   50.4020 O   0  0  0  0  0  0  0  0  0  0  0  0
    4.6070   11.8080   52.9960 O   0  0  0  0  0  0  0  0  0  0  0  0
    1.3660    8.4240   53.6400 O   0  0  0  0  0  0  0  0  0  0  0  0
    3.0280    1.6330   51.5190 S   0  0  0  0  0  0  0  0  0  0  0  0
  1  3  2  0
  1  4  1  0
  2  5  2  0
  2  6  1  0
  3  7  1  0
  4  8  2  0
  5 11  1  0
  6 12  2  0
  7 14  2  0
  8 14  1  0
  9 10  2  0
  9 15  1  0
 10 16  1  0
 11 18  2  0
 12 18  1  0
 13 16  2  0
 13 17  1  0
 14 24  1  0
 15 17  2  0
 15 23  1  0
 16 28  1  0
 17 29  1  0
 18 30  1  0
 19 22  1  0
 19 23  1  0
 19 25  2  0
 20 28  1  0
 21 29  1  0
 22 24  1  0
 24 30  1  0
 26 30  2  0
 27 30  2  0
M  END
>  <washed_aromatic_smiles>  (810) 
COc1ccc(c(c1)OC)NC(=O)CN(c2ccccc2)S(=O)(=O)c3ccccc3

>  <name>  (810) 
neg183551

$$$$
neg90020
     RDKit          3D

 32 34  0  0  0  0  0  0  0  0999 V2000
    0.2320    0.7380   47.8110 C   0  0  0  0  0  0  0  0  0  0  0  0
    0.3240   -0.3550   48.6680 C   0  0  0  0  0  0  0  0  0  0  0  0
    0.8960    1.9210   48.1110 C   0  0  0  0  0  0  0  0  0  0  0  0
    4.7690   11.7450   55.9630 C   0  0  0  0  0  0  0  0  0  0  0  0
    1.0980   -0.2880   49.8210 C   0  0  0  0  0  0  0  0  0  0  0  0
    5.3250   12.5550   56.9470 C   0  0  0  0  0  0  0  0  0  0  0  0
    5.2810   10.6970   58.5130 C   0  0  0  0  0  0  0  0  0  0  0  0
    1.6480    2.0050   49.2870 C   0  0  0  0  0  0  0  0  0  0  0  0
    4.4550   10.4120   56.2540 C   0  0  0  0  0  0  0  0  0  0  0  0
    5.5680   12.0310   58.2220 C   0  0  0  0  0  0  0  0  0  0  0  0
    1.7540    0.8970   50.1380 C   0  0  0  0  0  0  0  0  0  0  0  0
    4.7380    9.8830   57.5210 C   0  0  0  0  0  0  0  0  0  0  0  0
    2.2390    4.4650   49.2570 C   0  0  0  0  0  0  0  0  0  0  0  0
    3.7210    9.7240   53.9530 C   0  0  0  0  0  0  0  0  0  0  0  0
    3.4310    5.6240   52.5790 C   0  0  0  0  0  0  0  0  0  0  0  0
    1.0980    6.0200   51.7320 C   0  0  0  0  0  0  0  0  0  0  0  0
    3.2550    6.9070   53.3980 C   0  0  0  0  0  0  0  0  0  0  0  0
    1.1460    7.3670   52.4750 C   0  0  0  0  0  0  0  0  0  0  0  0
    6.7010   14.1170   59.0510 C   0  0  0  0  0  0  0  0  0  0  0  0
    2.6050   -0.0140   52.3180 C   0  0  0  0  0  0  0  0  0  0  0  0
    5.2590    7.7490   58.6800 C   0  0  0  0  0  0  0  0  0  0  0  0
    2.9080    5.4510   50.1880 C   0  0  0  0  0  0  0  0  0  0  0  0
    2.4480    9.1950   53.3100 C   0  0  0  0  0  0  0  0  0  0  0  0
    2.3930    5.3040   51.5720 N   0  0  0  0  0  0  0  0  0  0  0  0
    2.5060    7.8950   52.6430 N   0  0  0  0  0  0  0  0  0  0  0  0
    2.3180    3.1760   49.7130 N   0  0  0  0  0  0  0  0  0  0  0  0
    3.7620    9.5870   55.3210 N   0  0  0  0  0  0  0  0  0  0  0  0
    1.6550    4.7670   48.2370 O   0  0  0  0  0  0  0  0  0  0  0  0
    4.6040   10.3080   53.3480 O   0  0  0  0  0  0  0  0  0  0  0  0
    6.1230   12.7990   59.2350 O   0  0  0  0  0  0  0  0  0  0  0  0
    2.5190    1.0050   51.2960 O   0  0  0  0  0  0  0  0  0  0  0  0
    4.4710    8.5410   57.7610 O   0  0  0  0  0  0  0  0  0  0  0  0
  1  2  2  0
  1  3  1  0
  2  5  1  0
  3  8  2  0
  4  6  2  0
  4  9  1  0
  5 11  2  0
  6 10  1  0
  7 10  2  0
  7 12  1  0
  8 11  1  0
  8 26  1  0
  9 12  2  0
  9 27  1  0
 10 30  1  0
 11 31  1  0
 12 32  1  0
 13 22  1  0
 13 26  1  0
 13 28  2  0
 14 23  1  0
 14 27  1  0
 14 29  2  0
 15 17  1  0
 15 24  1  0
 16 18  1  0
 16 24  1  0
 17 25  1  0
 18 25  1  0
 19 30  1  0
 20 31  1  0
 21 32  1  0
 22 24  1  0
 23 25  1  0
M  END
>  <washed_aromatic_smiles>  (811) 
COc1ccc(c(c1)OC)NC(=O)CN2CCN(CC2)CC(=O)Nc3ccccc3OC

>  <name>  (811) 
neg90020

$$$$
neg43590
     RDKit          3D

 27 29  0  0  0  0  0  0  0  0999 V2000
    0.7050    7.9940   53.2370 C   0  0  0  0  0  0  0  0  0  0  0  0
    2.1390    3.2840   47.6660 C   0  0  0  0  0  0  0  0  0  0  0  0
    2.0410    7.8270   53.5790 C   0  0  0  0  0  0  0  0  0  0  0  0
    0.1130    7.1100   52.3440 C   0  0  0  0  0  0  0  0  0  0  0  0
    3.2890    4.0350   47.8890 C   0  0  0  0  0  0  0  0  0  0  0  0
    1.2820    3.0000   48.7060 C   0  0  0  0  0  0  0  0  0  0  0  0
    2.7670    6.7730   53.0350 C   0  0  0  0  0  0  0  0  0  0  0  0
    0.8410    6.0750   51.7870 C   0  0  0  0  0  0  0  0  0  0  0  0
    3.5280    4.5930   49.1350 C   0  0  0  0  0  0  0  0  0  0  0  0
    1.5760    3.4850   49.9660 C   0  0  0  0  0  0  0  0  0  0  0  0
    0.0170    1.1020   51.6330 C   0  0  0  0  0  0  0  0  0  0  0  0
   -0.8840    0.7860   50.6410 C   0  0  0  0  0  0  0  0  0  0  0  0
    0.7850   -0.4880   49.4760 C   0  0  0  0  0  0  0  0  0  0  0  0
    2.1670    5.8830   52.1390 C   0  0  0  0  0  0  0  0  0  0  0  0
    2.6770    4.2910   50.1870 C   0  0  0  0  0  0  0  0  0  0  0  0
    1.3340    0.6860   51.5510 C   0  0  0  0  0  0  0  0  0  0  0  0
   -0.5040    0.0220   49.5480 C   0  0  0  0  0  0  0  0  0  0  0  0
    1.6710   -0.2190   50.5190 C   0  0  0  0  0  0  0  0  0  0  0  0
    3.1800    2.1760   52.3540 C   0  0  0  0  0  0  0  0  0  0  0  0
   -2.8600   -0.6830   49.0630 C   0  0  0  0  0  0  0  0  0  0  0  0
    4.0600   -0.5160   50.8650 C   0  0  0  0  0  0  0  0  0  0  0  0
    2.9660    4.7190   51.5970 C   0  0  0  0  0  0  0  0  0  0  0  0
    2.2240    1.1790   52.5690 N   0  0  0  0  0  0  0  0  0  0  0  0
    2.8790    3.5340   52.5090 N   0  0  0  0  0  0  0  0  0  0  0  0
    4.3260    1.8080   52.2070 O   0  0  0  0  0  0  0  0  0  0  0  0
   -1.4670   -0.3640   48.6140 O   0  0  0  0  0  0  0  0  0  0  0  0
    2.7850   -0.9910   50.5270 O   0  0  0  0  0  0  0  0  0  0  0  0
  1  3  2  0
  1  4  1  0
  2  5  2  0
  2  6  1  0
  3  7  1  0
  4  8  2  0
  5  9  1  0
  6 10  2  0
  7 14  2  0
  8 14  1  0
  9 15  2  0
 10 15  1  0
 11 12  2  0
 11 16  1  0
 12 17  1  0
 13 17  2  0
 13 18  1  0
 14 22  1  0
 15 22  1  0
 16 18  2  0
 16 23  1  0
 17 26  1  0
 18 27  1  0
 19 23  1  0
 19 24  1  0
 19 25  2  0
 20 26  1  0
 21 27  1  0
 22 24  1  0
M  END
>  <washed_aromatic_smiles>  (812) 
COc1ccc(c(c1)OC)NC(=O)NC(c2ccccc2)c3ccccc3

>  <name>  (812) 
neg43590

$$$$
neg65845
     RDKit          3D

 27 29  0  0  0  0  0  0  0  0999 V2000
    0.7560    2.1040   47.3940 C   0  0  0  0  0  0  0  0  0  0  0  0
    0.9780    7.5950   53.1480 C   0  0  0  0  0  0  0  0  0  0  0  0
    3.2940    6.9230   53.1110 C   0  0  0  0  0  0  0  0  0  0  0  0
    0.6980    6.6950   52.1240 C   0  0  0  0  0  0  0  0  0  0  0  0
    3.0270    6.0360   52.0830 C   0  0  0  0  0  0  0  0  0  0  0  0
    4.1830    9.8830   57.0270 C   0  0  0  0  0  0  0  0  0  0  0  0
    4.6640   10.7510   58.0010 C   0  0  0  0  0  0  0  0  0  0  0  0
    1.1700    3.2620   48.0530 C   0  0  0  0  0  0  0  0  0  0  0  0
    5.5600   12.2090   56.2780 C   0  0  0  0  0  0  0  0  0  0  0  0
    0.8940    1.0800   48.2680 C   0  0  0  0  0  0  0  0  0  0  0  0
    2.2840    7.7260   53.6510 C   0  0  0  0  0  0  0  0  0  0  0  0
    1.7290    5.9130   51.5920 C   0  0  0  0  0  0  0  0  0  0  0  0
    4.3770   10.1740   55.6720 C   0  0  0  0  0  0  0  0  0  0  0  0
    5.3430   11.9090   57.6270 C   0  0  0  0  0  0  0  0  0  0  0  0
    5.0980   11.3290   55.3010 C   0  0  0  0  0  0  0  0  0  0  0  0
    1.5210    2.9030   49.3190 C   0  0  0  0  0  0  0  0  0  0  0  0
    2.6040    8.6680   54.7160 C   0  0  0  0  0  0  0  0  0  0  0  0
    1.9250    3.7000   50.4600 C   0  0  0  0  0  0  0  0  0  0  0  0
    6.3650   14.0430   58.4780 C   0  0  0  0  0  0  0  0  0  0  0  0
    5.8150   10.7450   52.9540 C   0  0  0  0  0  0  0  0  0  0  0  0
    3.8400    9.2970   54.6780 N   0  0  0  0  0  0  0  0  0  0  0  0
    1.4560    5.0100   50.5380 N   0  0  0  0  0  0  0  0  0  0  0  0
    1.8330    8.9270   55.6310 O   0  0  0  0  0  0  0  0  0  0  0  0
    2.6040    3.2450   51.3770 O   0  0  0  0  0  0  0  0  0  0  0  0
    1.3740    1.5460   49.4410 O   0  0  0  0  0  0  0  0  0  0  0  0
    5.8010   12.7240   58.6500 O   0  0  0  0  0  0  0  0  0  0  0  0
    5.3860   11.6690   53.9840 O   0  0  0  0  0  0  0  0  0  0  0  0
  1  8  1  0
  1 10  2  0
  2  4  2  0
  2 11  1  0
  3  5  1  0
  3 11  2  0
  4 12  1  0
  5 12  2  0
  6  7  2  0
  6 13  1  0
  7 14  1  0
  8 16  2  0
  9 14  2  0
  9 15  1  0
 10 25  1  0
 11 17  1  0
 12 22  1  0
 13 15  2  0
 13 21  1  0
 14 26  1  0
 15 27  1  0
 16 18  1  0
 16 25  1  0
 17 21  1  0
 17 23  2  0
 18 22  1  0
 18 24  2  0
 19 26  1  0
 20 27  1  0
M  END
>  <washed_aromatic_smiles>  (813) 
COc1ccc(c(c1)OC)NC(=O)c2ccc(cc2)NC(=O)c3ccco3

>  <name>  (813) 
neg65845

$$$$
neg22492
     RDKit          3D

 28 30  0  0  0  0  0  0  0  0999 V2000
   -0.1280    0.6180   47.6200 C   0  0  0  0  0  0  0  0  0  0  0  0
    1.0740    1.2610   47.8630 C   0  0  0  0  0  0  0  0  0  0  0  0
   -0.3070    0.1180   49.9600 C   0  0  0  0  0  0  0  0  0  0  0  0
   -0.7990    0.0040   48.6720 C   0  0  0  0  0  0  0  0  0  0  0  0
    1.6800    1.1500   49.1200 C   0  0  0  0  0  0  0  0  0  0  0  0
    0.9300    0.6870   50.1780 C   0  0  0  0  0  0  0  0  0  0  0  0
    1.9470    7.0170   52.7990 C   0  0  0  0  0  0  0  0  0  0  0  0
    4.9960   10.2960   56.0230 C   0  0  0  0  0  0  0  0  0  0  0  0
    3.5850    9.9840   56.5220 C   0  0  0  0  0  0  0  0  0  0  0  0
    5.0250   10.4640   54.4990 C   0  0  0  0  0  0  0  0  0  0  0  0
    2.9940    8.7610   55.8050 C   0  0  0  0  0  0  0  0  0  0  0  0
    4.5000    9.2030   53.8000 C   0  0  0  0  0  0  0  0  0  0  0  0
    3.2730    4.9160   52.4930 C   0  0  0  0  0  0  0  0  0  0  0  0
    1.6890    5.3990   50.9010 C   0  0  0  0  0  0  0  0  0  0  0  0
    2.9790    3.3430   52.4980 C   0  0  0  0  0  0  0  0  0  0  0  0
    1.3100    3.9100   50.8180 C   0  0  0  0  0  0  0  0  0  0  0  0
    3.1070    8.7420   54.2670 C   0  0  0  0  0  0  0  0  0  0  0  0
   -3.1960   -0.7590   49.3210 C   0  0  0  0  0  0  0  0  0  0  0  0
    3.9070    0.6570   50.4020 C   0  0  0  0  0  0  0  0  0  0  0  0
    2.1300    5.7510   52.2370 N   0  0  0  0  0  0  0  0  0  0  0  0
    2.0750    2.8110   51.4880 N   0  0  0  0  0  0  0  0  0  0  0  0
    2.8590    7.3860   53.7680 N   0  0  0  0  0  0  0  0  0  0  0  0
    1.0090    7.7480   52.4750 O   0  0  0  0  0  0  0  0  0  0  0  0
    0.0100    1.3640   52.3870 O   0  0  0  0  0  0  0  0  0  0  0  0
    2.1720    0.3490   52.4630 O   0  0  0  0  0  0  0  0  0  0  0  0
   -2.0530   -0.5230   48.4400 O   0  0  0  0  0  0  0  0  0  0  0  0
    3.0040    1.5230   49.4040 O   0  0  0  0  0  0  0  0  0  0  0  0
    1.2910    1.2460   51.7910 S   0  0  0  0  0  0  0  0  0  0  0  0
  1  2  2  0
  1  4  1  0
  2  5  1  0
  3  4  2  0
  3  6  1  0
  4 26  1  0
  5  6  2  0
  5 27  1  0
  6 28  1  0
  7 20  1  0
  7 22  1  0
  7 23  2  0
  8  9  1  0
  8 10  1  0
  9 11  1  0
 10 12  1  0
 11 17  1  0
 12 17  1  0
 13 15  1  0
 13 20  1  0
 14 16  1  0
 14 20  1  0
 15 21  1  0
 16 21  1  0
 17 22  1  0
 18 26  1  0
 19 27  1  0
 21 28  1  0
 24 28  2  0
 25 28  2  0
M  END
>  <washed_aromatic_smiles>  (814) 
COc1ccc(c(c1)S(=O)(=O)N2CCN(CC2)C(=O)NC3CCCCC3)OC

>  <name>  (814) 
neg22492

$$$$
neg285506
     RDKit          3D

 25 27  0  0  0  0  0  0  0  0999 V2000
    1.0820    2.4160   47.8270 C   0  0  0  0  0  0  0  0  0  0  0  0
    0.5470    1.1230   47.8660 C   0  0  0  0  0  0  0  0  0  0  0  0
    1.8450    2.8910   48.8700 C   0  0  0  0  0  0  0  0  0  0  0  0
    0.8360    0.3050   48.9280 C   0  0  0  0  0  0  0  0  0  0  0  0
    2.8620    1.7490   52.3310 C   0  0  0  0  0  0  0  0  0  0  0  0
    2.6800    0.3890   52.1670 C   0  0  0  0  0  0  0  0  0  0  0  0
    2.6220    8.6680   54.1940 C   0  0  0  0  0  0  0  0  0  0  0  0
    1.4980    8.4870   53.4120 C   0  0  0  0  0  0  0  0  0  0  0  0
    3.6490    6.7440   53.1110 C   0  0  0  0  0  0  0  0  0  0  0  0
    2.0200    2.1440   50.0550 C   0  0  0  0  0  0  0  0  0  0  0  0
    1.6420    0.7730   50.0030 C   0  0  0  0  0  0  0  0  0  0  0  0
    2.5470    2.6790   51.3130 C   0  0  0  0  0  0  0  0  0  0  0  0
    3.6940    7.8010   54.0280 C   0  0  0  0  0  0  0  0  0  0  0  0
    2.1070   -0.0900   51.0120 C   0  0  0  0  0  0  0  0  0  0  0  0
    1.4800    7.4570   52.4760 C   0  0  0  0  0  0  0  0  0  0  0  0
    2.5670    6.6050   52.2460 C   0  0  0  0  0  0  0  0  0  0  0  0
    5.6520    9.1470   54.2940 C   0  0  0  0  0  0  0  0  0  0  0  0
   -0.2620    6.0550   52.4210 C   0  0  0  0  0  0  0  0  0  0  0  0
    2.7250    3.9630   51.6160 N   0  0  0  0  0  0  0  0  0  0  0  0
    3.8110    5.6300   50.1190 O   0  0  0  0  0  0  0  0  0  0  0  0
    1.3920    5.4470   50.1500 O   0  0  0  0  0  0  0  0  0  0  0  0
    2.0350   -1.4370   50.8250 O   0  0  0  0  0  0  0  0  0  0  0  0
    4.8340    8.0490   54.7430 O   0  0  0  0  0  0  0  0  0  0  0  0
    0.3080    7.2230   51.8760 O   0  0  0  0  0  0  0  0  0  0  0  0
    2.6190    5.3920   50.8780 S   0  0  2  0  0  0  0  0  0  0  0  0
  1  2  2  0
  1  3  1  0
  2  4  1  0
  3 10  2  0
  4 11  2  0
  5  6  1  0
  5 12  2  0
  6 14  2  0
  7  8  2  0
  7 13  1  0
  8 15  1  0
  9 13  2  0
  9 16  1  0
 10 11  1  0
 10 12  1  0
 11 14  1  0
 12 19  1  0
 13 23  1  0
 14 22  1  0
 15 16  2  0
 15 24  1  0
 16 25  1  0
 17 23  1  0
 18 24  1  0
 19 25  2  0
 20 25  2  0
 25 21  1  6
M  CHG  1  21  -1
M  END
>  <washed_aromatic_smiles>  (815) 
COc1ccc(c(c1)S(=O)(=O)Nc2ccc(c3c2cccc3)O)OC

>  <name>  (815) 
neg285506

$$$$
neg162167
     RDKit          3D

 26 28  0  0  0  0  0  0  0  0999 V2000
    1.9590    8.7350   55.3660 C   0  0  0  0  0  0  0  0  0  0  0  0
    3.1460    8.2460   54.8430 C   0  0  0  0  0  0  0  0  0  0  0  0
    0.7580    8.4800   54.7110 C   0  0  0  0  0  0  0  0  0  0  0  0
    1.0740    2.2830   47.6180 C   0  0  0  0  0  0  0  0  0  0  0  0
    3.1320    7.5240   53.6560 C   0  0  0  0  0  0  0  0  0  0  0  0
    0.7500    7.7970   53.5040 C   0  0  0  0  0  0  0  0  0  0  0  0
    0.2210    1.1980   47.5700 C   0  0  0  0  0  0  0  0  0  0  0  0
    2.0200    2.4160   48.6340 C   0  0  0  0  0  0  0  0  0  0  0  0
    1.9350    7.3160   52.9600 C   0  0  0  0  0  0  0  0  0  0  0  0
    0.2560    0.2740   48.6070 C   0  0  0  0  0  0  0  0  0  0  0  0
    2.0790    1.4560   49.6520 C   0  0  0  0  0  0  0  0  0  0  0  0
    1.1470    0.4210   49.6720 C   0  0  0  0  0  0  0  0  0  0  0  0
    2.8690    3.5830   48.6380 C   0  0  0  0  0  0  0  0  0  0  0  0
    1.4450    5.1670   51.7270 C   0  0  0  0  0  0  0  0  0  0  0  0
    3.1530    6.6020   50.8430 C   0  0  0  0  0  0  0  0  0  0  0  0
    1.3770    4.5020   50.3630 C   0  0  0  0  0  0  0  0  0  0  0  0
    3.3110    5.8020   49.5510 C   0  0  0  0  0  0  0  0  0  0  0  0
    1.8490    6.6000   51.6190 C   0  0  0  0  0  0  0  0  0  0  0  0
   -2.0350   -0.4990   48.6420 C   0  0  0  0  0  0  0  0  0  0  0  0
    3.7450    0.5330   51.3130 C   0  0  0  0  0  0  0  0  0  0  0  0
    0.4840    0.2540   51.9500 C   0  0  0  0  0  0  0  0  0  0  0  0
    2.6290    4.5280   49.6040 N   0  0  0  0  0  0  0  0  0  0  0  0
    3.7540    3.7670   47.8020 O   0  0  0  0  0  0  0  0  0  0  0  0
   -0.6140   -0.7560   48.5770 O   0  0  0  0  0  0  0  0  0  0  0  0
    3.0440    1.6040   50.6350 O   0  0  0  0  0  0  0  0  0  0  0  0
    1.0410   -0.3820   50.7720 O   0  0  0  0  0  0  0  0  0  0  0  0
  1  2  2  0
  1  3  1  0
  2  5  1  0
  3  6  2  0
  4  7  2  0
  4  8  1  0
  5  9  2  0
  6  9  1  0
  7 10  1  0
  8 11  2  0
  8 13  1  0
  9 18  1  0
 10 12  2  0
 10 24  1  0
 11 12  1  0
 11 25  1  0
 12 26  1  0
 13 22  1  0
 13 23  2  0
 14 16  1  0
 14 18  1  0
 15 17  1  0
 15 18  1  0
 16 22  1  0
 17 22  1  0
 19 24  1  0
 20 25  1  0
 21 26  1  0
M  END
>  <washed_aromatic_smiles>  (816) 
COc1ccc(c(c1OC)OC)C(=O)N2CCC(CC2)c3ccccc3

>  <name>  (816) 
neg162167

$$$$
neg69743
     RDKit          3D

 34 37  0  0  0  0  0  0  0  0999 V2000
    5.3640    8.6870   57.5360 C   0  0  0  0  0  0  0  0  0  0  0  0
    5.8120   11.8920   53.0720 C   0  0  0  0  0  0  0  0  0  0  0  0
    2.7490    2.8230   50.4970 C   0  0  0  0  0  0  0  0  0  0  0  0
    5.4890    9.6580   56.5570 C   0  0  0  0  0  0  0  0  0  0  0  0
    2.2020    1.9310   51.3990 C   0  0  0  0  0  0  0  0  0  0  0  0
    4.4540   11.7410   52.8570 C   0  0  0  0  0  0  0  0  0  0  0  0
    4.5780    7.5710   57.2680 C   0  0  0  0  0  0  0  0  0  0  0  0
    6.2160   10.8330   53.8130 C   0  0  0  0  0  0  0  0  0  0  0  0
    2.3520    2.8880   49.1670 C   0  0  0  0  0  0  0  0  0  0  0  0
    4.8810    9.4080   55.3370 C   0  0  0  0  0  0  0  0  0  0  0  0
    1.1850    1.0900   50.9730 C   0  0  0  0  0  0  0  0  0  0  0  0
    1.2890    2.0890   48.7540 C   0  0  0  0  0  0  0  0  0  0  0  0
    0.7280    1.1740   49.6540 C   0  0  0  0  0  0  0  0  0  0  0  0
    4.0800   10.5430   53.4150 C   0  0  0  0  0  0  0  0  0  0  0  0
    3.9200    8.4190   55.2170 C   0  0  0  0  0  0  0  0  0  0  0  0
    2.9590    9.6320   53.3250 C   0  0  0  0  0  0  0  0  0  0  0  0
    2.0810    5.8060   50.7350 C   0  0  0  0  0  0  0  0  0  0  0  0
    1.2840   -0.1970   53.0980 C   0  0  0  0  0  0  0  0  0  0  0  0
    0.2440    1.3520   46.5190 C   0  0  0  0  0  0  0  0  0  0  0  0
    0.3520   -0.8980   48.7940 C   0  0  0  0  0  0  0  0  0  0  0  0
    3.0840    3.8290   48.2240 C   0  0  0  0  0  0  0  0  0  0  0  0
    2.5040    6.4900   52.0140 C   0  0  0  0  0  0  0  0  0  0  0  0
    1.3200    7.0250   52.8150 C   0  0  0  0  0  0  0  0  0  0  0  0
    1.7750    7.6120   54.1530 C   0  0  0  0  0  0  0  0  0  0  0  0
    2.7410    5.2880   48.4410 C   0  0  0  0  0  0  0  0  0  0  0  0
    3.8530    7.4750   56.1490 N   0  0  0  0  0  0  0  0  0  0  0  0
    5.1150   10.1630   54.1880 N   0  0  0  0  0  0  0  0  0  0  0  0
    2.9490    8.5060   54.1630 N   0  0  0  0  0  0  0  0  0  0  0  0
    3.0220    5.7400   49.7900 N   0  0  0  0  0  0  0  0  0  0  0  0
    2.0150    9.8070   52.5710 O   0  0  0  0  0  0  0  0  0  0  0  0
    0.9470    5.3470   50.6070 O   0  0  0  0  0  0  0  0  0  0  0  0
    0.6360    0.1710   51.8510 O   0  0  0  0  0  0  0  0  0  0  0  0
    0.8270    2.2780   47.4530 O   0  0  0  0  0  0  0  0  0  0  0  0
   -0.2210    0.3120   49.2440 O   0  0  0  0  0  0  0  0  0  0  0  0
  1  4  2  0
  1  7  1  0
  2  6  1  0
  2  8  2  0
  3  5  2  0
  3  9  1  0
  4 10  1  0
  5 11  1  0
  6 14  2  0
  7 26  2  0
  8 27  1  0
  9 12  2  0
  9 21  1  0
 10 15  2  0
 10 27  1  0
 11 13  2  0
 11 32  1  0
 12 13  1  0
 12 33  1  0
 13 34  1  0
 14 16  1  0
 14 27  1  0
 15 26  1  0
 15 28  1  0
 16 28  1  0
 16 30  2  0
 17 22  1  0
 17 29  1  0
 17 31  2  0
 18 32  1  0
 19 33  1  0
 20 34  1  0
 21 25  1  0
 22 23  1  0
 23 24  1  0
 24 28  1  0
 25 29  1  0
M  END
>  <washed_aromatic_smiles>  (817) 
COc1ccc(c(c1OC)OC)CCNC(=O)CCCn2c3c(cccn3)n4cccc4c2=O

>  <name>  (817) 
neg69743

$$$$
neg160444
     RDKit          3D

 27 28  0  0  0  0  0  0  0  0999 V2000
    2.0810    4.4380   48.8650 C   0  0  0  0  0  0  0  0  0  0  0  0
    2.3730    3.4130   51.0330 C   0  0  0  0  0  0  0  0  0  0  0  0
    1.5930    3.2440   48.3580 C   0  0  0  0  0  0  0  0  0  0  0  0
    1.8830    2.2140   50.5320 C   0  0  0  0  0  0  0  0  0  0  0  0
    4.8350    9.0440   56.6350 C   0  0  0  0  0  0  0  0  0  0  0  0
    5.1560   11.8390   56.5260 C   0  0  0  0  0  0  0  0  0  0  0  0
    2.4560    4.5520   50.2150 C   0  0  0  0  0  0  0  0  0  0  0  0
    4.6150    9.7340   55.4400 C   0  0  0  0  0  0  0  0  0  0  0  0
    1.4750    2.1380   49.2020 C   0  0  0  0  0  0  0  0  0  0  0  0
    4.8250   11.1190   55.3790 C   0  0  0  0  0  0  0  0  0  0  0  0
    5.3230   11.1540   57.7320 C   0  0  0  0  0  0  0  0  0  0  0  0
    5.2030    9.7530   57.7770 C   0  0  0  0  0  0  0  0  0  0  0  0
    2.9290    5.8290   50.7310 C   0  0  0  0  0  0  0  0  0  0  0  0
    3.1200    7.5990   52.6820 C   0  0  0  0  0  0  0  0  0  0  0  0
    3.5690    7.8760   54.0360 C   0  0  0  0  0  0  0  0  0  0  0  0
    0.2520    0.7620   47.5180 C   0  0  0  0  0  0  0  0  0  0  0  0
    5.3090   12.9670   53.7520 C   0  0  0  0  0  0  0  0  0  0  0  0
    6.1260   13.1910   59.0130 C   0  0  0  0  0  0  0  0  0  0  0  0
    2.7920    6.1810   52.2170 C   0  0  0  0  0  0  0  0  0  0  0  0
    4.1860    9.1000   54.2370 N   0  0  0  0  0  0  0  0  0  0  0  0
    3.4520    6.6070   49.9680 O   0  0  0  0  0  0  0  0  0  0  0  0
    3.0150    8.5290   51.9300 O   0  0  0  0  0  0  0  0  0  0  0  0
    3.4070    7.0950   54.9600 O   0  0  0  0  0  0  0  0  0  0  0  0
    0.9420    0.9510   48.7720 O   0  0  0  0  0  0  0  0  0  0  0  0
    4.6790   11.7440   54.1460 O   0  0  0  0  0  0  0  0  0  0  0  0
    5.6290   11.8300   58.9140 O   0  0  0  0  0  0  0  0  0  0  0  0
    5.5560    8.8650   59.2160 Cl  0  0  0  0  0  0  0  0  0  0  0  0
  1  3  2  0
  1  7  1  0
  2  4  1  0
  2  7  2  0
  3  9  1  0
  4  9  2  0
  5  8  2  0
  5 12  1  0
  6 10  2  0
  6 11  1  0
  7 13  1  0
  8 10  1  0
  8 20  1  0
  9 24  1  0
 10 25  1  0
 11 12  2  0
 11 26  1  0
 12 27  1  0
 13 19  1  0
 13 21  2  0
 14 15  1  0
 14 19  1  0
 14 22  2  0
 15 20  1  0
 15 23  2  0
 16 24  1  0
 17 25  1  0
 18 26  1  0
M  END
>  <washed_aromatic_smiles>  (818) 
COc1ccc(cc1)C(=O)CC(=O)C(=O)Nc2cc(c(cc2OC)OC)Cl

>  <name>  (818) 
neg160444

$$$$
neg225272
     RDKit          3D

 28 30  0  0  0  0  0  0  0  0999 V2000
    6.2410   11.5810   52.5450 C   0  0  0  0  0  0  0  0  0  0  0  0
    7.1680   14.4070   59.1740 C   0  0  0  0  0  0  0  0  0  0  0  0
    5.5420   12.6620   53.0770 C   0  0  0  0  0  0  0  0  0  0  0  0
    6.2980   10.3880   53.2420 C   0  0  0  0  0  0  0  0  0  0  0  0
    7.3720   13.2010   59.7970 C   0  0  0  0  0  0  0  0  0  0  0  0
    6.1950   14.4760   58.1960 C   0  0  0  0  0  0  0  0  0  0  0  0
    0.9560    7.8170   53.8930 C   0  0  0  0  0  0  0  0  0  0  0  0
    3.2390    7.1390   53.5070 C   0  0  0  0  0  0  0  0  0  0  0  0
    4.8690   12.5220   54.2830 C   0  0  0  0  0  0  0  0  0  0  0  0
    5.6410   10.2520   54.4380 C   0  0  0  0  0  0  0  0  0  0  0  0
    6.5330   12.1310   59.4920 C   0  0  0  0  0  0  0  0  0  0  0  0
    5.4430   13.3780   57.8260 C   0  0  0  0  0  0  0  0  0  0  0  0
    0.5600    7.1350   52.7490 C   0  0  0  0  0  0  0  0  0  0  0  0
    2.8450    6.4370   52.3760 C   0  0  0  0  0  0  0  0  0  0  0  0
    2.2960    7.7910   54.3190 C   0  0  0  0  0  0  0  0  0  0  0  0
    4.8990   11.3030   54.9540 C   0  0  0  0  0  0  0  0  0  0  0  0
    5.5430   12.1980   58.5470 C   0  0  0  0  0  0  0  0  0  0  0  0
    1.4980    6.4170   52.0140 C   0  0  0  0  0  0  0  0  0  0  0  0
    2.6680    8.3850   55.6080 C   0  0  0  0  0  0  0  0  0  0  0  0
    4.5470    8.8290   57.2160 C   0  0  0  0  0  0  0  0  0  0  0  0
    1.8870    4.9160   50.0600 C   0  0  0  0  0  0  0  0  0  0  0  0
    4.0530   11.0850   56.1720 C   0  0  0  0  0  0  0  0  0  0  0  0
    4.6460   10.9670   58.4630 C   0  0  0  0  0  0  0  0  0  0  0  0
    3.9510    8.1910   56.0990 N   0  0  0  0  0  0  0  0  0  0  0  0
    4.6310   10.2510   57.2060 N   0  0  0  0  0  0  0  0  0  0  0  0
    1.8690    8.9740   56.3330 O   0  0  0  0  0  0  0  0  0  0  0  0
    1.0420    5.6900   50.9420 O   0  0  0  0  0  0  0  0  0  0  0  0
    5.2280    7.8690   58.4200 S   0  0  0  0  0  0  0  0  0  0  0  0
  1  3  2  0
  1  4  1  0
  2  5  2  0
  2  6  1  0
  3  9  1  0
  4 10  2  0
  5 11  1  0
  6 12  2  0
  7 13  2  0
  7 15  1  0
  8 14  1  0
  8 15  2  0
  9 16  2  0
 10 16  1  0
 11 17  2  0
 12 17  1  0
 13 18  1  0
 14 18  2  0
 15 19  1  0
 16 22  1  0
 17 23  1  0
 18 27  1  0
 19 24  1  0
 19 26  2  0
 20 24  1  0
 20 25  1  0
 20 28  2  0
 21 27  1  0
 22 25  1  0
 23 25  1  0
M  END
>  <washed_aromatic_smiles>  (819) 
COc1ccc(cc1)C(=O)NC(=S)N(Cc2ccccc2)Cc3ccccc3

>  <name>  (819) 
neg225272

$$$$
neg59077
     RDKit          3D

 28 30  0  0  0  0  0  0  0  0999 V2000
    5.6660   12.6610   58.6920 C   0  0  0  0  0  0  0  0  0  0  0  0
    5.6780   13.3120   57.4650 C   0  0  0  0  0  0  0  0  0  0  0  0
    5.4880   11.2860   58.7400 C   0  0  0  0  0  0  0  0  0  0  0  0
    2.5990    2.6510   50.4420 C   0  0  0  0  0  0  0  0  0  0  0  0
    3.0310    1.9990   52.7470 C   0  0  0  0  0  0  0  0  0  0  0  0
    5.5590   12.5830   56.2850 C   0  0  0  0  0  0  0  0  0  0  0  0
    5.3650   10.5560   57.5680 C   0  0  0  0  0  0  0  0  0  0  0  0
    2.6860    1.3470   50.0620 C   0  0  0  0  0  0  0  0  0  0  0  0
    3.2200    0.6990   52.3560 C   0  0  0  0  0  0  0  0  0  0  0  0
    2.7910    2.9780   51.7810 C   0  0  0  0  0  0  0  0  0  0  0  0
    5.4250   11.1960   56.3330 C   0  0  0  0  0  0  0  0  0  0  0  0
    3.0640    0.4040   51.0130 C   0  0  0  0  0  0  0  0  0  0  0  0
    2.6750    4.3480   52.1340 C   0  0  0  0  0  0  0  0  0  0  0  0
    3.4600    8.8920   55.2820 C   0  0  0  0  0  0  0  0  0  0  0  0
    2.6800    7.0960   51.3900 C   0  0  0  0  0  0  0  0  0  0  0  0
    0.2190    6.7270   52.3010 C   0  0  0  0  0  0  0  0  0  0  0  0
    2.8980    7.9410   52.6540 C   0  0  0  0  0  0  0  0  0  0  0  0
    0.5720    7.9500   53.1160 C   0  0  0  0  0  0  0  0  0  0  0  0
    1.3530    6.2990   51.3650 C   0  0  0  0  0  0  0  0  0  0  0  0
    1.8670   -1.3610   50.4770 C   0  0  0  0  0  0  0  0  0  0  0  0
    5.3920   10.3670   55.0670 C   0  0  0  0  0  0  0  0  0  0  0  0
    2.0410    8.7160   54.7880 C   0  0  0  0  0  0  0  0  0  0  0  0
    1.8810    7.7360   53.7080 N   0  0  0  0  0  0  0  0  0  0  0  0
    1.5950    4.9220   51.5430 N   0  0  0  0  0  0  0  0  0  0  0  0
    4.0770    9.9390   54.7270 N   0  0  0  0  0  0  0  0  0  0  0  0
    3.4590    4.9330   52.8740 O   0  0  0  0  0  0  0  0  0  0  0  0
    3.9590    8.1190   56.0990 O   0  0  0  0  0  0  0  0  0  0  0  0
    3.1560   -0.8530   50.6640 O   0  0  0  0  0  0  0  0  0  0  0  0
  1  2  2  0
  1  3  1  0
  2  6  1  0
  3  7  2  0
  4  8  2  0
  4 10  1  0
  5  9  1  0
  5 10  2  0
  6 11  2  0
  7 11  1  0
  8 12  1  0
  9 12  2  0
 10 13  1  0
 11 21  1  0
 12 28  1  0
 13 24  1  0
 13 26  2  0
 14 22  1  0
 14 25  1  0
 14 27  2  0
 15 17  1  0
 15 19  1  0
 16 18  1  0
 16 19  1  0
 17 23  1  0
 18 23  1  0
 19 24  1  0
 20 28  1  0
 21 25  1  0
 22 23  1  0
M  END
>  <washed_aromatic_smiles>  (820) 
COc1ccc(cc1)C(=O)NC2CCN(CC2)CC(=O)NCc3ccccc3

>  <name>  (820) 
neg59077

$$$$
neg98692
     RDKit          3D

 29 31  0  0  0  0  0  0  0  0999 V2000
    4.6270    9.9680   53.1440 C   0  0  0  0  0  0  0  0  0  0  0  0
    3.7540    9.4120   55.3260 C   0  0  0  0  0  0  0  0  0  0  0  0
    2.7060    1.4320   52.2870 C   0  0  0  0  0  0  0  0  0  0  0  0
    0.7050    0.0720   52.3490 C   0  0  0  0  0  0  0  0  0  0  0  0
    5.2650   11.0790   53.6810 C   0  0  0  0  0  0  0  0  0  0  0  0
    4.3840   10.5220   55.8700 C   0  0  0  0  0  0  0  0  0  0  0  0
    3.1130    0.8730   53.4840 C   0  0  0  0  0  0  0  0  0  0  0  0
    1.1580   -0.5270   53.5180 C   0  0  0  0  0  0  0  0  0  0  0  0
    3.8760    9.1070   53.9610 C   0  0  0  0  0  0  0  0  0  0  0  0
    1.5000    1.0170   51.7170 C   0  0  0  0  0  0  0  0  0  0  0  0
    5.1520   11.3480   55.0440 C   0  0  0  0  0  0  0  0  0  0  0  0
    2.3640   -0.1290   54.0800 C   0  0  0  0  0  0  0  0  0  0  0  0
    3.2770    7.8750   53.4500 C   0  0  0  0  0  0  0  0  0  0  0  0
    1.8390    2.1090   49.5620 C   0  0  0  0  0  0  0  0  0  0  0  0
    3.4010    6.2740   50.0230 C   0  0  0  0  0  0  0  0  0  0  0  0
    1.4440    5.9190   51.5620 C   0  0  0  0  0  0  0  0  0  0  0  0
    2.9140    5.0750   49.1880 C   0  0  0  0  0  0  0  0  0  0  0  0
    1.3950    4.5460   50.9340 C   0  0  0  0  0  0  0  0  0  0  0  0
    2.8750    6.3950   51.4830 C   0  0  0  0  0  0  0  0  0  0  0  0
    5.7020   12.9090   56.8980 C   0  0  0  0  0  0  0  0  0  0  0  0
    4.0880   -0.6010   55.8940 C   0  0  0  0  0  0  0  0  0  0  0  0
    1.3500    3.2970   48.7780 C   0  0  0  0  0  0  0  0  0  0  0  0
    1.5550    4.6090   49.4660 N   0  0  0  0  0  0  0  0  0  0  0  0
    1.0190    1.5960   50.5260 N   0  0  0  0  0  0  0  0  0  0  0  0
    2.9990    7.7250   52.1060 N   0  0  0  0  0  0  0  0  0  0  0  0
    3.0350    6.9320   54.1980 O   0  0  0  0  0  0  0  0  0  0  0  0
    2.9570    1.6820   49.4380 O   0  0  0  0  0  0  0  0  0  0  0  0
    5.8280   12.4410   55.5370 O   0  0  0  0  0  0  0  0  0  0  0  0
    2.7860   -0.7350   55.2430 O   0  0  0  0  0  0  0  0  0  0  0  0
  1  5  2  0
  1  9  1  0
  2  6  1  0
  2  9  2  0
  3  7  2  0
  3 10  1  0
  4  8  1  0
  4 10  2  0
  5 11  1  0
  6 11  2  0
  7 12  1  0
  8 12  2  0
  9 13  1  0
 10 24  1  0
 11 28  1  0
 12 29  1  0
 13 25  1  0
 13 26  2  0
 14 22  1  0
 14 24  1  0
 14 27  2  0
 15 17  1  0
 15 19  1  0
 16 18  1  0
 16 19  1  0
 17 23  1  0
 18 23  1  0
 19 25  1  0
 20 28  1  0
 21 29  1  0
 22 23  1  0
M  END
>  <washed_aromatic_smiles>  (821) 
COc1ccc(cc1)C(=O)NC2CCN(CC2)CC(=O)Nc3ccc(cc3)OC

>  <name>  (821) 
neg98692

$$$$
neg89759
     RDKit          3D

 27 29  0  0  0  0  0  0  0  0999 V2000
    0.9070    0.7530   52.8430 C   0  0  0  0  0  0  0  0  0  0  0  0
    2.1320   -1.1410   52.0700 C   0  0  0  0  0  0  0  0  0  0  0  0
    1.0440    5.2290   51.5350 C   0  0  0  0  0  0  0  0  0  0  0  0
    2.9550    6.5670   50.9970 C   0  0  0  0  0  0  0  0  0  0  0  0
    1.6600    0.7760   54.0080 C   0  0  0  0  0  0  0  0  0  0  0  0
    2.7810   -1.2110   53.2990 C   0  0  0  0  0  0  0  0  0  0  0  0
    0.5680    6.2330   52.3560 C   0  0  0  0  0  0  0  0  0  0  0  0
    2.5360    7.5410   51.8960 C   0  0  0  0  0  0  0  0  0  0  0  0
    1.1710   -0.1510   51.8270 C   0  0  0  0  0  0  0  0  0  0  0  0
    2.2710    5.3670   50.8960 C   0  0  0  0  0  0  0  0  0  0  0  0
    2.6020   -0.2050   54.2420 C   0  0  0  0  0  0  0  0  0  0  0  0
    1.3370    7.3690   52.5850 C   0  0  0  0  0  0  0  0  0  0  0  0
    0.3970   -0.0320   50.5900 C   0  0  0  0  0  0  0  0  0  0  0  0
    0.6100    1.4780   47.8610 C   0  0  0  0  0  0  0  0  0  0  0  0
    2.6260    2.9410   50.5880 C   0  0  0  0  0  0  0  0  0  0  0  0
    2.6730    4.5420   48.6980 C   0  0  0  0  0  0  0  0  0  0  0  0
    2.5340    1.9670   49.4180 C   0  0  0  0  0  0  0  0  0  0  0  0
    1.4290    3.7850   48.2190 C   0  0  0  0  0  0  0  0  0  0  0  0
    4.4120   -0.7740   56.0560 C   0  0  0  0  0  0  0  0  0  0  0  0
    0.5540   -0.0330   48.1200 C   0  0  0  0  0  0  0  0  0  0  0  0
    2.8640    4.3380   50.1420 N   0  0  0  0  0  0  0  0  0  0  0  0
    1.4650    2.3240   48.4860 N   0  0  0  0  0  0  0  0  0  0  0  0
    0.8940   -0.5800   49.4390 N   0  0  0  0  0  0  0  0  0  0  0  0
   -0.6640    0.5830   50.5200 O   0  0  0  0  0  0  0  0  0  0  0  0
   -0.1420    1.9260   46.9970 O   0  0  0  0  0  0  0  0  0  0  0  0
    3.2760   -0.1070   55.4430 O   0  0  0  0  0  0  0  0  0  0  0  0
    0.7800    8.5540   53.7020 Cl  0  0  0  0  0  0  0  0  0  0  0  0
  1  5  2  0
  1  9  1  0
  2  6  1  0
  2  9  2  0
  3  7  2  0
  3 10  1  0
  4  8  1  0
  4 10  2  0
  5 11  1  0
  6 11  2  0
  7 12  1  0
  8 12  2  0
  9 13  1  0
 10 21  1  0
 11 26  1  0
 12 27  1  0
 13 23  1  0
 13 24  2  0
 14 20  1  0
 14 22  1  0
 14 25  2  0
 15 17  1  0
 15 21  1  0
 16 18  1  0
 16 21  1  0
 17 22  1  0
 18 22  1  0
 19 26  1  0
 20 23  1  0
M  END
>  <washed_aromatic_smiles>  (822) 
COc1ccc(cc1)C(=O)NCC(=O)N2CCN(CC2)c3ccc(cc3)Cl

>  <name>  (822) 
neg89759

$$$$
neg88995
     RDKit          3D

 27 28  0  0  0  0  0  0  0  0999 V2000
    0.8450    1.0300   51.7540 C   0  0  0  0  0  0  0  0  0  0  0  0
    2.9600    0.8590   50.6070 C   0  0  0  0  0  0  0  0  0  0  0  0
    2.9050    9.7810   56.7030 C   0  0  0  0  0  0  0  0  0  0  0  0
    3.7970    7.7100   55.8890 C   0  0  0  0  0  0  0  0  0  0  0  0
    1.2040   -0.0260   52.5690 C   0  0  0  0  0  0  0  0  0  0  0  0
    3.3170   -0.2120   51.4000 C   0  0  0  0  0  0  0  0  0  0  0  0
    3.9280    9.8620   57.6400 C   0  0  0  0  0  0  0  0  0  0  0  0
    4.8070    7.7660   56.8410 C   0  0  0  0  0  0  0  0  0  0  0  0
    1.7820    1.5580   50.8560 C   0  0  0  0  0  0  0  0  0  0  0  0
    2.8120    8.6930   55.8300 C   0  0  0  0  0  0  0  0  0  0  0  0
    2.4760   -0.5680   52.4480 C   0  0  0  0  0  0  0  0  0  0  0  0
    4.8650    8.8350   57.7290 C   0  0  0  0  0  0  0  0  0  0  0  0
    1.6100    2.8990   50.3490 C   0  0  0  0  0  0  0  0  0  0  0  0
    2.8520    5.5900   49.7010 C   0  0  0  0  0  0  0  0  0  0  0  0
    2.3070    8.0060   52.6280 C   0  0  0  0  0  0  0  0  0  0  0  0
    3.0320   -0.6800   54.7260 C   0  0  0  0  0  0  0  0  0  0  0  0
    1.6300    8.5360   54.8730 C   0  0  0  0  0  0  0  0  0  0  0  0
    2.0290    4.7080   48.7740 C   0  0  0  0  0  0  0  0  0  0  0  0
    2.9630    7.0460   51.6450 C   0  0  0  0  0  0  0  0  0  0  0  0
    2.0540    3.2840   49.1200 N   0  0  0  0  0  0  0  0  0  0  0  0
    2.2300    6.1820   50.7480 N   0  0  0  0  0  0  0  0  0  0  0  0
    1.1190    3.7610   51.0490 O   0  0  0  0  0  0  0  0  0  0  0  0
    4.0560    5.7250   49.4910 O   0  0  0  0  0  0  0  0  0  0  0  0
    2.4950    9.2130   52.4700 O   0  0  0  0  0  0  0  0  0  0  0  0
    2.9380   -1.3530   53.4400 O   0  0  0  0  0  0  0  0  0  0  0  0
    1.8360    7.5580   53.8050 O   0  0  0  0  0  0  0  0  0  0  0  0
    6.0810    8.8590   58.9570 Cl  0  0  0  0  0  0  0  0  0  0  0  0
  1  5  2  0
  1  9  1  0
  2  6  1  0
  2  9  2  0
  3  7  2  0
  3 10  1  0
  4  8  1  0
  4 10  2  0
  5 11  1  0
  6 11  2  0
  7 12  1  0
  8 12  2  0
  9 13  1  0
 10 17  1  0
 11 25  1  0
 12 27  1  0
 13 20  1  0
 13 22  2  0
 14 18  1  0
 14 21  1  0
 14 23  2  0
 15 19  1  0
 15 24  2  0
 15 26  1  0
 16 25  1  0
 17 26  1  0
 18 20  1  0
 19 21  1  0
M  END
>  <washed_aromatic_smiles>  (823) 
COc1ccc(cc1)C(=O)NCC(=O)NCC(=O)OCc2ccc(cc2)Cl

>  <name>  (823) 
neg88995

$$$$
neg37499
     RDKit          3D

 25 26  0  0  0  0  0  0  0  0999 V2000
    2.1270    8.4960   54.3880 C   0  0  0  0  0  0  0  0  0  0  0  0
    3.2790    7.7320   54.1370 C   0  0  0  0  0  0  0  0  0  0  0  0
    0.9320    8.2160   53.7020 C   0  0  0  0  0  0  0  0  0  0  0  0
    0.5850    0.7110   52.0480 C   0  0  0  0  0  0  0  0  0  0  0  0
    2.0290   -0.9430   51.0460 C   0  0  0  0  0  0  0  0  0  0  0  0
    3.2300    6.6750   53.2140 C   0  0  0  0  0  0  0  0  0  0  0  0
    0.8860    7.1630   52.7730 C   0  0  0  0  0  0  0  0  0  0  0  0
    1.2060    0.5130   53.2730 C   0  0  0  0  0  0  0  0  0  0  0  0
    2.6060   -1.1780   52.2830 C   0  0  0  0  0  0  0  0  0  0  0  0
    0.9940   -0.0140   50.9210 C   0  0  0  0  0  0  0  0  0  0  0  0
    2.0340    6.3840   52.5340 C   0  0  0  0  0  0  0  0  0  0  0  0
    2.2170   -0.4330   53.3850 C   0  0  0  0  0  0  0  0  0  0  0  0
    0.3150    0.1670   49.6550 C   0  0  0  0  0  0  0  0  0  0  0  0
    3.3120    0.4790   55.3420 C   0  0  0  0  0  0  0  0  0  0  0  0
    1.9720    5.2040   51.5880 C   0  0  0  0  0  0  0  0  0  0  0  0
    2.6230    5.4550   50.2340 C   0  0  0  0  0  0  0  0  0  0  0  0
    0.6630    1.2110   47.4560 C   0  0  0  0  0  0  0  0  0  0  0  0
    0.7950    2.6850   47.8600 C   0  0  0  0  0  0  0  0  0  0  0  0
    1.0750    0.3300   48.5330 N   0  0  0  0  0  0  0  0  0  0  0  0
    1.8680    4.8330   49.1540 N   0  0  0  0  0  0  0  0  0  0  0  0
   -0.8990    0.1950   49.5630 O   0  0  0  0  0  0  0  0  0  0  0  0
    2.6080    2.5030   49.7400 O   0  0  0  0  0  0  0  0  0  0  0  0
    3.2970    3.4690   47.6300 O   0  0  0  0  0  0  0  0  0  0  0  0
    2.8520   -0.6510   54.5750 O   0  0  0  0  0  0  0  0  0  0  0  0
    2.2910    3.3290   48.6230 S   0  0  0  0  0  0  0  0  0  0  0  0
  1  2  2  0
  1  3  1  0
  2  6  1  0
  3  7  2  0
  4  8  2  0
  4 10  1  0
  5  9  1  0
  5 10  2  0
  6 11  2  0
  7 11  1  0
  8 12  1  0
  9 12  2  0
 10 13  1  0
 11 15  1  0
 12 24  1  0
 13 19  1  0
 13 21  2  0
 14 24  1  0
 15 16  1  0
 16 20  1  0
 17 18  1  0
 17 19  1  0
 18 25  1  0
 20 25  1  0
 22 25  2  0
 23 25  2  0
M  END
>  <washed_aromatic_smiles>  (824) 
COc1ccc(cc1)C(=O)NCCS(=O)(=O)NCCc2ccccc2

>  <name>  (824) 
neg37499

$$$$
neg36580
     RDKit          3D

 25 26  0  0  0  0  0  0  0  0999 V2000
    3.3720    1.8760   51.6450 C   0  0  0  0  0  0  0  0  0  0  0  0
    1.5650    2.0790   50.0490 C   0  0  0  0  0  0  0  0  0  0  0  0
    5.0680    8.9720   54.9220 C   0  0  0  0  0  0  0  0  0  0  0  0
    2.7930    9.2110   55.6860 C   0  0  0  0  0  0  0  0  0  0  0  0
    3.4400    0.5400   51.4110 C   0  0  0  0  0  0  0  0  0  0  0  0
    1.5150    0.6960   49.9420 C   0  0  0  0  0  0  0  0  0  0  0  0
    5.4790    8.7130   56.2270 C   0  0  0  0  0  0  0  0  0  0  0  0
    3.1980    8.9940   56.9940 C   0  0  0  0  0  0  0  0  0  0  0  0
    2.4300    2.6660   50.9870 C   0  0  0  0  0  0  0  0  0  0  0  0
    3.7220    9.2340   54.6460 C   0  0  0  0  0  0  0  0  0  0  0  0
    2.4070   -0.0510   50.7060 C   0  0  0  0  0  0  0  0  0  0  0  0
    4.5370    8.7400   57.2440 C   0  0  0  0  0  0  0  0  0  0  0  0
    2.4170    4.0570   51.3510 C   0  0  0  0  0  0  0  0  0  0  0  0
    2.2210   -1.5650   52.3950 C   0  0  0  0  0  0  0  0  0  0  0  0
    3.2980    9.6050   53.2370 C   0  0  0  0  0  0  0  0  0  0  0  0
    2.9110    6.1260   50.3950 C   0  0  0  0  0  0  0  0  0  0  0  0
    2.9090    7.1060   51.5740 C   0  0  0  0  0  0  0  0  0  0  0  0
    2.0160    5.0020   50.4700 N   0  0  0  0  0  0  0  0  0  0  0  0
    1.9310    9.2200   52.8270 N   0  0  0  0  0  0  0  0  0  0  0  0
    2.8720    4.4260   52.4240 O   0  0  0  0  0  0  0  0  0  0  0  0
    0.3300    7.4340   52.0050 O   0  0  0  0  0  0  0  0  0  0  0  0
    1.7530    6.9520   53.8930 O   0  0  0  0  0  0  0  0  0  0  0  0
    2.1970   -1.3450   50.9500 O   0  0  0  0  0  0  0  0  0  0  0  0
    4.9440    8.5100   58.5170 F   0  0  0  0  0  0  0  0  0  0  0  0
    1.5840    7.6120   52.6500 S   0  0  0  0  0  0  0  0  0  0  0  0
  1  5  2  0
  1  9  1  0
  2  6  1  0
  2  9  2  0
  3  7  2  0
  3 10  1  0
  4  8  1  0
  4 10  2  0
  5 11  1  0
  6 11  2  0
  7 12  1  0
  8 12  2  0
  9 13  1  0
 10 15  1  0
 11 23  1  0
 12 24  1  0
 13 18  1  0
 13 20  2  0
 14 23  1  0
 15 19  1  0
 16 17  1  0
 16 18  1  0
 17 25  1  0
 19 25  1  0
 21 25  2  0
 22 25  2  0
M  END
>  <washed_aromatic_smiles>  (825) 
COc1ccc(cc1)C(=O)NCCS(=O)(=O)NCc2ccc(cc2)F

>  <name>  (825) 
neg36580

$$$$
neg62757
     RDKit          3D

 27 29  0  0  0  0  0  0  0  0999 V2000
    5.5780    8.3270   59.4130 C   0  0  0  0  0  0  0  0  0  0  0  0
    5.1000    7.4060   58.4630 C   0  0  0  0  0  0  0  0  0  0  0  0
    5.1110   11.9390   56.2140 C   0  0  0  0  0  0  0  0  0  0  0  0
    5.6330    9.6650   59.1070 C   0  0  0  0  0  0  0  0  0  0  0  0
    4.6740    7.8460   57.2340 C   0  0  0  0  0  0  0  0  0  0  0  0
    5.3830   11.5120   57.4910 C   0  0  0  0  0  0  0  0  0  0  0  0
    2.2790    2.5750   50.9410 C   0  0  0  0  0  0  0  0  0  0  0  0
    1.6940    4.1020   49.1590 C   0  0  0  0  0  0  0  0  0  0  0  0
    4.5980   11.0420   55.2640 C   0  0  0  0  0  0  0  0  0  0  0  0
    1.8570    1.5050   50.1690 C   0  0  0  0  0  0  0  0  0  0  0  0
    1.2750    3.0340   48.3800 C   0  0  0  0  0  0  0  0  0  0  0  0
    5.2320   10.1450   57.8410 C   0  0  0  0  0  0  0  0  0  0  0  0
    4.7200    9.2280   56.8980 C   0  0  0  0  0  0  0  0  0  0  0  0
    2.1660    3.8920   50.4680 C   0  0  0  0  0  0  0  0  0  0  0  0
    4.3160    9.7370   55.6330 C   0  0  0  0  0  0  0  0  0  0  0  0
    1.3180    1.7450   48.9030 C   0  0  0  0  0  0  0  0  0  0  0  0
    2.5330    5.0000   51.3450 C   0  0  0  0  0  0  0  0  0  0  0  0
    3.4590    8.8190   53.4580 C   0  0  0  0  0  0  0  0  0  0  0  0
    2.5710    7.7920   52.9150 C   0  0  0  0  0  0  0  0  0  0  0  0
    0.2510   -0.4490   48.7640 C   0  0  0  0  0  0  0  0  0  0  0  0
    3.5470    8.8680   54.8290 N   0  0  0  0  0  0  0  0  0  0  0  0
    2.2120    6.2710   50.9740 N   0  0  0  0  0  0  0  0  0  0  0  0
    2.8060    7.4220   51.6280 N   0  0  0  0  0  0  0  0  0  0  0  0
    3.1230    4.8430   52.4130 O   0  0  0  0  0  0  0  0  0  0  0  0
    4.1470    9.5690   52.7720 O   0  0  0  0  0  0  0  0  0  0  0  0
    1.6720    7.2480   53.5700 O   0  0  0  0  0  0  0  0  0  0  0  0
    0.7880    0.7360   48.1460 O   0  0  0  0  0  0  0  0  0  0  0  0
  1  2  2  0
  1  4  1  0
  2  5  1  0
  3  6  2  0
  3  9  1  0
  4 12  2  0
  5 13  2  0
  6 12  1  0
  7 10  2  0
  7 14  1  0
  8 11  1  0
  8 14  2  0
  9 15  2  0
 10 16  1  0
 11 16  2  0
 12 13  1  0
 13 15  1  0
 14 17  1  0
 15 21  1  0
 16 27  1  0
 17 22  1  0
 17 24  2  0
 18 19  1  0
 18 21  1  0
 18 25  2  0
 19 23  1  0
 19 26  2  0
 20 27  1  0
 22 23  1  0
M  END
>  <washed_aromatic_smiles>  (826) 
COc1ccc(cc1)C(=O)NNC(=O)C(=O)Nc2cccc3c2cccc3

>  <name>  (826) 
neg62757

$$$$
neg3060
     RDKit          3D

 27 29  0  0  0  0  0  0  0  0999 V2000
    3.3110    8.6210   52.1440 C   0  0  0  0  0  0  0  0  0  0  0  0
    1.6570    7.1340   53.0410 C   0  0  0  0  0  0  0  0  0  0  0  0
    2.3910    4.3410   48.7500 C   0  0  0  0  0  0  0  0  0  0  0  0
    3.3250    9.3540   53.3130 C   0  0  0  0  0  0  0  0  0  0  0  0
    1.6010    7.9140   54.1910 C   0  0  0  0  0  0  0  0  0  0  0  0
    1.8840    3.3430   47.9340 C   0  0  0  0  0  0  0  0  0  0  0  0
    1.8090    2.9970   50.6530 C   0  0  0  0  0  0  0  0  0  0  0  0
    2.5940    7.4240   52.0360 C   0  0  0  0  0  0  0  0  0  0  0  0
    2.3070    4.1800   50.1310 C   0  0  0  0  0  0  0  0  0  0  0  0
    2.5250    8.9470   54.3680 C   0  0  0  0  0  0  0  0  0  0  0  0
    1.1610    2.0620   49.8630 C   0  0  0  0  0  0  0  0  0  0  0  0
    1.2330    2.2260   48.4670 C   0  0  0  0  0  0  0  0  0  0  0  0
    2.8660    6.5110   50.9180 C   0  0  0  0  0  0  0  0  0  0  0  0
    2.1300   -0.8500   50.7530 C   0  0  0  0  0  0  0  0  0  0  0  0
    1.5610    0.1260   52.9170 C   0  0  0  0  0  0  0  0  0  0  0  0
    3.5510   -0.5070   51.1900 C   0  0  0  0  0  0  0  0  0  0  0  0
    2.9340    0.8110   53.0310 C   0  0  0  0  0  0  0  0  0  0  0  0
    2.5060    9.0920   56.8580 C   0  0  0  0  0  0  0  0  0  0  0  0
    1.1480   -0.1370   51.5260 N   0  0  0  0  0  0  0  0  0  0  0  0
    2.5840    5.1770   51.1080 N   0  0  0  0  0  0  0  0  0  0  0  0
    3.4050    6.8500   49.8700 O   0  0  0  0  0  0  0  0  0  0  0  0
   -0.6560    1.5490   51.6930 O   0  0  0  0  0  0  0  0  0  0  0  0
   -0.6060    0.1250   49.7550 O   0  0  0  0  0  0  0  0  0  0  0  0
    3.6620    0.7680   51.8060 O   0  0  0  0  0  0  0  0  0  0  0  0
    2.7110    9.6110   55.5500 O   0  0  0  0  0  0  0  0  0  0  0  0
    0.1190    0.8620   50.7250 S   0  0  0  0  0  0  0  0  0  0  0  0
    0.5360    1.1190   47.3250 Cl  0  0  0  0  0  0  0  0  0  0  0  0
  1  4  2  0
  1  8  1  0
  2  5  1  0
  2  8  2  0
  3  6  2  0
  3  9  1  0
  4 10  1  0
  5 10  2  0
  6 12  1  0
  7  9  2  0
  7 11  1  0
  8 13  1  0
  9 20  1  0
 10 25  1  0
 11 12  2  0
 11 26  1  0
 12 27  1  0
 13 20  1  0
 13 21  2  0
 14 16  1  0
 14 19  1  0
 15 17  1  0
 15 19  1  0
 16 24  1  0
 17 24  1  0
 18 25  1  0
 19 26  1  0
 22 26  2  0
 23 26  2  0
M  END
>  <washed_aromatic_smiles>  (827) 
COc1ccc(cc1)C(=O)Nc2ccc(c(c2)S(=O)(=O)N3CCOCC3)Cl

>  <name>  (827) 
neg3060

$$$$
neg250548
     RDKit          3D

 26 28  0  0  0  0  0  0  0  0999 V2000
    2.6980    2.9560   51.7040 C   0  0  0  0  0  0  0  0  0  0  0  0
    1.7040    3.0620   49.5040 C   0  0  0  0  0  0  0  0  0  0  0  0
    3.3760    6.5560   53.1450 C   0  0  0  0  0  0  0  0  0  0  0  0
    1.5920    8.0460   52.4850 C   0  0  0  0  0  0  0  0  0  0  0  0
    2.6390    1.5790   51.6840 C   0  0  0  0  0  0  0  0  0  0  0  0
    1.6260    1.6730   49.4770 C   0  0  0  0  0  0  0  0  0  0  0  0
    4.1020    7.6460   53.5870 C   0  0  0  0  0  0  0  0  0  0  0  0
    2.3690    9.1320   52.8730 C   0  0  0  0  0  0  0  0  0  0  0  0
    2.2120    3.7120   50.6360 C   0  0  0  0  0  0  0  0  0  0  0  0
    2.1530    6.7750   52.5230 C   0  0  0  0  0  0  0  0  0  0  0  0
    2.0790    0.9390   50.5760 C   0  0  0  0  0  0  0  0  0  0  0  0
    3.6490    8.9430   53.4010 C   0  0  0  0  0  0  0  0  0  0  0  0
    2.2640    5.1520   50.7540 C   0  0  0  0  0  0  0  0  0  0  0  0
    4.7730   10.7180   58.3650 C   0  0  0  0  0  0  0  0  0  0  0  0
    4.5830   11.8760   57.3900 C   0  0  0  0  0  0  0  0  0  0  0  0
    4.3330    9.4230   57.6890 C   0  0  0  0  0  0  0  0  0  0  0  0
    5.1970   11.6600   56.0170 C   0  0  0  0  0  0  0  0  0  0  0  0
    4.9580    9.2610   56.3010 C   0  0  0  0  0  0  0  0  0  0  0  0
    2.3280   -1.2130   51.6930 C   0  0  0  0  0  0  0  0  0  0  0  0
    4.7040   10.4240   55.4230 N   0  0  0  0  0  0  0  0  0  0  0  0
    1.5730    5.7120   51.8190 N   0  0  0  0  0  0  0  0  0  0  0  0
    2.9680    5.8550   50.0390 O   0  0  0  0  0  0  0  0  0  0  0  0
    6.1260    9.8270   53.4410 O   0  0  0  0  0  0  0  0  0  0  0  0
    4.3700   11.4640   53.1490 O   0  0  0  0  0  0  0  0  0  0  0  0
    1.9510   -0.4220   50.5500 O   0  0  0  0  0  0  0  0  0  0  0  0
    4.8080   10.2610   53.7760 S   0  0  0  0  0  0  0  0  0  0  0  0
  1  5  2  0
  1  9  1  0
  2  6  1  0
  2  9  2  0
  3  7  2  0
  3 10  1  0
  4  8  1  0
  4 10  2  0
  5 11  1  0
  6 11  2  0
  7 12  1  0
  8 12  2  0
  9 13  1  0
 10 21  1  0
 11 25  1  0
 12 26  1  0
 13 21  1  0
 13 22  2  0
 14 15  1  0
 14 16  1  0
 15 17  1  0
 16 18  1  0
 17 20  1  0
 18 20  1  0
 19 25  1  0
 20 26  1  0
 23 26  2  0
 24 26  2  0
M  END
>  <washed_aromatic_smiles>  (828) 
COc1ccc(cc1)C(=O)Nc2ccc(cc2)S(=O)(=O)N3CCCCC3

>  <name>  (828) 
neg250548

$$$$
neg69341
     RDKit          3D

 26 28  0  0  0  0  0  0  0  0999 V2000
    3.5530    6.9400   53.4500 C   0  0  0  0  0  0  0  0  0  0  0  0
    1.2870    7.5110   52.8590 C   0  0  0  0  0  0  0  0  0  0  0  0
    1.8670    4.5660   48.9070 C   0  0  0  0  0  0  0  0  0  0  0  0
    3.4690    7.7140   54.5950 C   0  0  0  0  0  0  0  0  0  0  0  0
    1.1800    8.2740   54.0160 C   0  0  0  0  0  0  0  0  0  0  0  0
    1.2910    3.8610   47.8830 C   0  0  0  0  0  0  0  0  0  0  0  0
    1.0960    1.9280   49.2700 C   0  0  0  0  0  0  0  0  0  0  0  0
    2.4890    6.8580   52.5560 C   0  0  0  0  0  0  0  0  0  0  0  0
    1.7020    2.6200   50.3380 C   0  0  0  0  0  0  0  0  0  0  0  0
    1.9970    3.9890   50.1660 C   0  0  0  0  0  0  0  0  0  0  0  0
    2.2830    8.3950   54.8670 C   0  0  0  0  0  0  0  0  0  0  0  0
    0.9130    2.5360   48.0430 C   0  0  0  0  0  0  0  0  0  0  0  0
    2.0170    1.9270   51.5800 C   0  0  0  0  0  0  0  0  0  0  0  0
    2.6850    6.1290   51.3190 C   0  0  0  0  0  0  0  0  0  0  0  0
    2.1220   -0.3430   51.0750 C   0  0  0  0  0  0  0  0  0  0  0  0
    1.1260    0.2540   53.1610 C   0  0  0  0  0  0  0  0  0  0  0  0
    3.3590   -0.6920   51.8550 C   0  0  0  0  0  0  0  0  0  0  0  0
    2.3290   -0.3380   53.9090 C   0  0  0  0  0  0  0  0  0  0  0  0
    3.3010    9.6210   56.7790 C   0  0  0  0  0  0  0  0  0  0  0  0
    1.4350    0.7040   51.7950 N   0  0  0  0  0  0  0  0  0  0  0  0
    2.2860    4.8050   51.2970 N   0  0  0  0  0  0  0  0  0  0  0  0
    2.8200    2.3410   52.4180 O   0  0  0  0  0  0  0  0  0  0  0  0
    3.2440    6.6240   50.3520 O   0  0  0  0  0  0  0  0  0  0  0  0
    2.9860   -1.2920   53.0920 O   0  0  0  0  0  0  0  0  0  0  0  0
    2.1730    9.1890   55.9830 O   0  0  0  0  0  0  0  0  0  0  0  0
    0.2210    1.6440   46.7340 Cl  0  0  0  0  0  0  0  0  0  0  0  0
  1  4  2  0
  1  8  1  0
  2  5  1  0
  2  8  2  0
  3  6  2  0
  3 10  1  0
  4 11  1  0
  5 11  2  0
  6 12  1  0
  7  9  1  0
  7 12  2  0
  8 14  1  0
  9 10  2  0
  9 13  1  0
 10 21  1  0
 11 25  1  0
 12 26  1  0
 13 20  1  0
 13 22  2  0
 14 21  1  0
 14 23  2  0
 15 17  1  0
 15 20  1  0
 16 18  1  0
 16 20  1  0
 17 24  1  0
 18 24  1  0
 19 25  1  0
M  END
>  <washed_aromatic_smiles>  (829) 
COc1ccc(cc1)C(=O)Nc2ccc(cc2C(=O)N3CCOCC3)Cl

>  <name>  (829) 
neg69341

$$$$
neg175402
     RDKit          3D

 27 29  0  0  0  0  0  0  0  0999 V2000
    5.6520    8.2150   59.7510 C   0  0  0  0  0  0  0  0  0  0  0  0
    5.4580    7.1220   58.9210 C   0  0  0  0  0  0  0  0  0  0  0  0
    5.7070    9.4970   59.2110 C   0  0  0  0  0  0  0  0  0  0  0  0
    0.3060    8.0980   53.3410 C   0  0  0  0  0  0  0  0  0  0  0  0
    1.5240    8.6070   53.7420 C   0  0  0  0  0  0  0  0  0  0  0  0
    1.2880    3.7900   48.3610 C   0  0  0  0  0  0  0  0  0  0  0  0
    2.0260    2.3450   50.1580 C   0  0  0  0  0  0  0  0  0  0  0  0
    5.3680    7.3110   57.5500 C   0  0  0  0  0  0  0  0  0  0  0  0
    5.6130    9.6830   57.8450 C   0  0  0  0  0  0  0  0  0  0  0  0
    0.2550    7.0180   52.4670 C   0  0  0  0  0  0  0  0  0  0  0  0
    0.8350    2.6870   47.6640 C   0  0  0  0  0  0  0  0  0  0  0  0
    1.6050    1.2320   49.4410 C   0  0  0  0  0  0  0  0  0  0  0  0
    2.6760    6.9460   52.4410 C   0  0  0  0  0  0  0  0  0  0  0  0
    1.8860    3.6280   49.6100 C   0  0  0  0  0  0  0  0  0  0  0  0
    2.7080    8.0730   53.2540 C   0  0  0  0  0  0  0  0  0  0  0  0
    5.4900    8.5890   57.0030 C   0  0  0  0  0  0  0  0  0  0  0  0
    1.4470    6.4370   52.0300 C   0  0  0  0  0  0  0  0  0  0  0  0
    1.0560    1.4120   48.1730 C   0  0  0  0  0  0  0  0  0  0  0  0
    2.2970    4.8070   50.3260 C   0  0  0  0  0  0  0  0  0  0  0  0
    3.9410    8.6840   53.6730 C   0  0  0  0  0  0  0  0  0  0  0  0
    0.8600    0.4590   45.9330 C   0  0  0  0  0  0  0  0  0  0  0  0
    5.5260    8.8300   55.5190 C   0  0  0  0  0  0  0  0  0  0  0  0
    1.3490    5.3050   51.1990 N   0  0  0  0  0  0  0  0  0  0  0  0
    4.4250    8.2150   54.8470 N   0  0  0  0  0  0  0  0  0  0  0  0
    3.3740    5.3570   50.1330 O   0  0  0  0  0  0  0  0  0  0  0  0
    4.4960    9.6130   53.0890 O   0  0  0  0  0  0  0  0  0  0  0  0
    0.7990    0.3240   47.3870 O   0  0  0  0  0  0  0  0  0  0  0  0
  1  2  2  0
  1  3  1  0
  2  8  1  0
  3  9  2  0
  4  5  2  0
  4 10  1  0
  5 15  1  0
  6 11  2  0
  6 14  1  0
  7 12  1  0
  7 14  2  0
  8 16  2  0
  9 16  1  0
 10 17  2  0
 11 18  1  0
 12 18  2  0
 13 15  2  0
 13 17  1  0
 14 19  1  0
 15 20  1  0
 16 22  1  0
 17 23  1  0
 18 27  1  0
 19 23  1  0
 19 25  2  0
 20 24  1  0
 20 26  2  0
 21 27  1  0
 22 24  1  0
M  END
>  <washed_aromatic_smiles>  (830) 
COc1ccc(cc1)C(=O)Nc2cccc(c2)C(=O)NCc3ccccc3

>  <name>  (830) 
neg175402

$$$$
neg101527
     RDKit          3D

 26 28  0  0  0  0  0  0  0  0999 V2000
    0.4940    1.7390   46.2640 C   0  0  0  0  0  0  0  0  0  0  0  0
    0.7330    0.3900   46.4150 C   0  0  0  0  0  0  0  0  0  0  0  0
    1.3600    6.9690   51.9970 C   0  0  0  0  0  0  0  0  0  0  0  0
    2.5650    6.9090   52.6810 C   0  0  0  0  0  0  0  0  0  0  0  0
    0.7640    2.6160   47.3080 C   0  0  0  0  0  0  0  0  0  0  0  0
    2.6750    1.0550   52.1810 C   0  0  0  0  0  0  0  0  0  0  0  0
    1.2530   -0.4400   53.4090 C   0  0  0  0  0  0  0  0  0  0  0  0
    1.0060   -0.1240   47.6650 C   0  0  0  0  0  0  0  0  0  0  0  0
    3.5110    1.1320   53.2520 C   0  0  0  0  0  0  0  0  0  0  0  0
    2.1030   -0.3610   54.5020 C   0  0  0  0  0  0  0  0  0  0  0  0
    0.9910    5.8820   51.2240 C   0  0  0  0  0  0  0  0  0  0  0  0
    3.3390    5.7580   52.5860 C   0  0  0  0  0  0  0  0  0  0  0  0
    1.5080    0.3080   52.2540 C   0  0  0  0  0  0  0  0  0  0  0  0
    1.2400    2.1490   48.5290 C   0  0  0  0  0  0  0  0  0  0  0  0
    1.1850    0.7500   48.7300 C   0  0  0  0  0  0  0  0  0  0  0  0
    3.1890    0.5020   54.4530 C   0  0  0  0  0  0  0  0  0  0  0  0
    1.8030    4.7450   51.2200 C   0  0  0  0  0  0  0  0  0  0  0  0
    0.6840    0.3350   51.0760 C   0  0  0  0  0  0  0  0  0  0  0  0
    1.9470    3.1270   49.3580 C   0  0  0  0  0  0  0  0  0  0  0  0
    4.5080   -0.1810   56.4950 C   0  0  0  0  0  0  0  0  0  0  0  0
    2.9470    4.6930   51.8890 N   0  0  0  0  0  0  0  0  0  0  0  0
    1.4160    0.1290   49.9420 N   0  0  0  0  0  0  0  0  0  0  0  0
    1.4090    3.5740   50.5460 N   0  0  0  0  0  0  0  0  0  0  0  0
   -0.5070    0.6150   51.0180 O   0  0  0  0  0  0  0  0  0  0  0  0
    2.9880    3.6470   48.9750 O   0  0  0  0  0  0  0  0  0  0  0  0
    3.9350    0.7810   55.5780 O   0  0  0  0  0  0  0  0  0  0  0  0
  1  2  2  0
  1  5  1  0
  2  8  1  0
  3  4  2  0
  3 11  1  0
  4 12  1  0
  5 14  2  0
  6  9  2  0
  6 13  1  0
  7 10  1  0
  7 13  2  0
  8 15  2  0
  9 16  1  0
 10 16  2  0
 11 17  2  0
 12 21  2  0
 13 18  1  0
 14 15  1  0
 14 19  1  0
 15 22  1  0
 16 26  1  0
 17 21  1  0
 17 23  1  0
 18 22  1  0
 18 24  2  0
 19 23  1  0
 19 25  2  0
 20 26  1  0
M  END
>  <washed_aromatic_smiles>  (831) 
COc1ccc(cc1)C(=O)Nc2ccccc2C(=O)Nc3ccccn3

>  <name>  (831) 
neg101527

$$$$
neg130464
     RDKit          3D

 29 31  0  0  0  0  0  0  0  0999 V2000
    2.0270    7.5540   53.4350 C   0  0  0  0  0  0  0  0  0  0  0  0
    3.5610   -0.5570   55.5730 C   0  0  0  0  0  0  0  0  0  0  0  0
    0.7910    7.3370   52.8440 C   0  0  0  0  0  0  0  0  0  0  0  0
    3.1460    6.8990   52.9400 C   0  0  0  0  0  0  0  0  0  0  0  0
    3.3990    0.7730   55.9190 C   0  0  0  0  0  0  0  0  0  0  0  0
    3.1860   -0.9880   54.3050 C   0  0  0  0  0  0  0  0  0  0  0  0
    0.6730    6.4470   51.7830 C   0  0  0  0  0  0  0  0  0  0  0  0
    3.0340    6.0340   51.8540 C   0  0  0  0  0  0  0  0  0  0  0  0
    2.9890    1.6710   54.9580 C   0  0  0  0  0  0  0  0  0  0  0  0
    2.7940   -0.0830   53.3480 C   0  0  0  0  0  0  0  0  0  0  0  0
    0.8010    1.0490   48.6920 C   0  0  0  0  0  0  0  0  0  0  0  0
    0.6240    1.3620   51.0560 C   0  0  0  0  0  0  0  0  0  0  0  0
   -0.3890    0.3260   48.7170 C   0  0  0  0  0  0  0  0  0  0  0  0
   -0.5260    0.6470   51.0950 C   0  0  0  0  0  0  0  0  0  0  0  0
    1.7890    5.7570   51.2780 C   0  0  0  0  0  0  0  0  0  0  0  0
    2.9000    1.2800   53.6170 C   0  0  0  0  0  0  0  0  0  0  0  0
    1.3020    1.6050   49.8720 C   0  0  0  0  0  0  0  0  0  0  0  0
   -1.1000    0.2360   49.9220 C   0  0  0  0  0  0  0  0  0  0  0  0
    3.5050    4.3680   48.7420 C   0  0  0  0  0  0  0  0  0  0  0  0
    4.2730    0.7670   51.0160 C   0  0  0  0  0  0  0  0  0  0  0  0
    1.6440    4.8090   50.1570 C   0  0  0  0  0  0  0  0  0  0  0  0
    3.0800    2.2270   52.5100 C   0  0  0  0  0  0  0  0  0  0  0  0
    2.6440    3.8700   49.6560 C   0  0  0  0  0  0  0  0  0  0  0  0
    3.3800    1.7650   51.1670 C   0  0  0  0  0  0  0  0  0  0  0  0
   -3.2250   -0.8110   49.1160 C   0  0  0  0  0  0  0  0  0  0  0  0
    2.6210    2.3360   49.9510 C   0  0  0  0  0  0  0  0  0  0  0  0
    0.6730    4.9250   49.4480 O   0  0  0  0  0  0  0  0  0  0  0  0
    2.9730    3.4100   52.6900 O   0  0  0  0  0  0  0  0  0  0  0  0
   -2.4220   -0.1520   50.0610 O   0  0  0  0  0  0  0  0  0  0  0  0
  1  3  2  0
  1  4  1  0
  2  5  2  0
  2  6  1  0
  3  7  1  0
  4  8  2  0
  5  9  1  0
  6 10  2  0
  7 15  2  0
  8 15  1  0
  9 16  2  0
 10 16  1  0
 11 13  2  0
 11 17  1  0
 12 14  1  0
 12 17  2  0
 13 18  1  0
 14 18  2  0
 15 21  1  0
 16 22  1  0
 17 26  1  0
 18 29  1  0
 19 23  2  0
 20 24  2  0
 21 23  1  0
 21 27  2  0
 22 24  1  0
 22 28  2  0
 23 26  1  0
 24 26  1  0
 25 29  1  0
M  END
>  <washed_aromatic_smiles>  (832) 
COc1ccc(cc1)C(C(=C)C(=O)c2ccccc2)C(=C)C(=O)c3ccccc3

>  <name>  (832) 
neg130464

$$$$
neg50111
     RDKit          3D

 27 29  0  0  0  0  0  0  0  0999 V2000
    2.2250    2.5420   50.0190 C   0  0  0  0  0  0  0  0  0  0  0  0
    2.2900    3.7490   49.3350 C   0  0  0  0  0  0  0  0  0  0  0  0
    2.5060    2.5100   51.3780 C   0  0  0  0  0  0  0  0  0  0  0  0
    2.6310    4.9140   50.0110 C   0  0  0  0  0  0  0  0  0  0  0  0
    2.8310    3.6820   52.0560 C   0  0  0  0  0  0  0  0  0  0  0  0
    4.8850    8.4550   57.7690 C   0  0  0  0  0  0  0  0  0  0  0  0
    4.8280   10.1160   56.0320 C   0  0  0  0  0  0  0  0  0  0  0  0
    5.1920    9.4370   58.7000 C   0  0  0  0  0  0  0  0  0  0  0  0
    5.1200   11.1060   56.9610 C   0  0  0  0  0  0  0  0  0  0  0  0
    4.6830    8.7610   56.4100 C   0  0  0  0  0  0  0  0  0  0  0  0
    2.9020    4.9130   51.3940 C   0  0  0  0  0  0  0  0  0  0  0  0
    5.3010   10.7650   58.2990 C   0  0  0  0  0  0  0  0  0  0  0  0
    4.3490    7.6430   55.5180 C   0  0  0  0  0  0  0  0  0  0  0  0
    3.2450    6.1950   52.0460 C   0  0  0  0  0  0  0  0  0  0  0  0
    4.0280    7.6340   54.1690 C   0  0  0  0  0  0  0  0  0  0  0  0
    3.6600    8.8680   53.5340 C   0  0  0  0  0  0  0  0  0  0  0  0
    0.1870    7.6310   52.7330 C   0  0  0  0  0  0  0  0  0  0  0  0
    0.8680    7.3540   54.0890 C   0  0  0  0  0  0  0  0  0  0  0  0
    0.1630    9.1430   52.5910 C   0  0  0  0  0  0  0  0  0  0  0  0
    1.5640    8.5350   54.7470 C   0  0  0  0  0  0  0  0  0  0  0  0
    1.6200    9.6260   52.6320 C   0  0  0  0  0  0  0  0  0  0  0  0
    6.0390   13.0760   59.0130 C   0  0  0  0  0  0  0  0  0  0  0  0
    2.3750    9.2780   53.8010 N   0  0  0  0  0  0  0  0  0  0  0  0
    3.8000    6.3540   53.3650 N   0  0  0  0  0  0  0  0  0  0  0  0
    3.0580    7.2020   51.4010 O   0  0  0  0  0  0  0  0  0  0  0  0
    4.4020    9.5510   52.8250 O   0  0  0  0  0  0  0  0  0  0  0  0
    5.6220   11.7070   59.2570 O   0  0  0  0  0  0  0  0  0  0  0  0
  1  2  2  0
  1  3  1  0
  2  4  1  0
  3  5  2  0
  4 11  2  0
  5 11  1  0
  6  8  2  0
  6 10  1  0
  7  9  1  0
  7 10  2  0
  8 12  1  0
  9 12  2  0
 10 13  1  0
 11 14  1  0
 12 27  1  0
 13 15  2  0
 14 24  1  0
 14 25  2  0
 15 16  1  0
 15 24  1  0
 16 23  1  0
 16 26  2  0
 17 18  1  0
 17 19  1  0
 18 20  1  0
 19 21  1  0
 20 23  1  0
 21 23  1  0
 22 27  1  0
M  END
>  <washed_aromatic_smiles>  (833) 
COc1ccc(cc1)/C=C(\C(=O)N2CCCCC2)/NC(=O)c3ccccc3

>  <name>  (833) 
neg50111

$$$$
neg2398
     RDKit          3D

 30 32  0  0  0  0  0  0  0  0999 V2000
    4.0280    9.4250   53.1860 C   0  0  0  0  0  0  0  0  0  0  0  0
    3.9900    8.5390   55.4300 C   0  0  0  0  0  0  0  0  0  0  0  0
    4.5130   10.6340   53.6680 C   0  0  0  0  0  0  0  0  0  0  0  0
    4.4640    9.7460   55.9230 C   0  0  0  0  0  0  0  0  0  0  0  0
    0.8370    2.2190   48.8910 C   0  0  0  0  0  0  0  0  0  0  0  0
    1.3500    1.0630   49.4510 C   0  0  0  0  0  0  0  0  0  0  0  0
    2.8910    2.4050   50.7350 C   0  0  0  0  0  0  0  0  0  0  0  0
    3.7760    8.3530   54.0550 C   0  0  0  0  0  0  0  0  0  0  0  0
    2.3290    3.5690   50.2590 C   0  0  0  0  0  0  0  0  0  0  0  0
    4.7230   10.7910   55.0410 C   0  0  0  0  0  0  0  0  0  0  0  0
    1.3080    3.4460   49.3500 C   0  0  0  0  0  0  0  0  0  0  0  0
    2.3750    1.1650   50.3890 C   0  0  0  0  0  0  0  0  0  0  0  0
    3.3960    7.0330   53.5810 C   0  0  0  0  0  0  0  0  0  0  0  0
    3.0770    6.6670   52.3090 C   0  0  0  0  0  0  0  0  0  0  0  0
    2.9730    5.2710   51.9330 C   0  0  0  0  0  0  0  0  0  0  0  0
    3.3070    1.2190   53.4280 C   0  0  0  0  0  0  0  0  0  0  0  0
    1.7750   -0.5710   53.4770 C   0  0  0  0  0  0  0  0  0  0  0  0
    3.4260    1.1920   54.9670 C   0  0  0  0  0  0  0  0  0  0  0  0
    2.2440   -0.8000   54.9030 C   0  0  0  0  0  0  0  0  0  0  0  0
    4.9840   13.2400   54.9140 C   0  0  0  0  0  0  0  0  0  0  0  0
    1.4290    4.9370   47.8030 C   0  0  0  0  0  0  0  0  0  0  0  0
    2.8930   -0.0240   52.7810 N   0  0  0  0  0  0  0  0  0  0  0  0
    2.7090    4.9010   50.6460 N   0  0  0  0  0  0  0  0  0  0  0  0
    3.1520    4.3660   52.7150 O   0  0  0  0  0  0  0  0  0  0  0  0
    2.3240   -1.3850   50.7310 O   0  0  0  0  0  0  0  0  0  0  0  0
    4.4720   -0.2600   50.8310 O   0  0  0  0  0  0  0  0  0  0  0  0
    2.5090    0.3950   55.5640 O   0  0  0  0  0  0  0  0  0  0  0  0
    5.1640   11.9750   55.5790 O   0  0  0  0  0  0  0  0  0  0  0  0
    0.7820    4.5810   48.9490 O   0  0  0  0  0  0  0  0  0  0  0  0
    3.0850   -0.2610   51.1490 S   0  0  0  0  0  0  0  0  0  0  0  0
  1  3  2  0
  1  8  1  0
  2  4  1  0
  2  8  2  0
  3 10  1  0
  4 10  2  0
  5  6  2  0
  5 11  1  0
  6 12  1  0
  7  9  1  0
  7 12  2  0
  8 13  1  0
  9 11  2  0
  9 23  1  0
 10 28  1  0
 11 29  1  0
 12 30  1  0
 13 14  2  0
 14 15  1  0
 15 23  1  0
 15 24  2  0
 16 18  1  0
 16 22  1  0
 17 19  1  0
 17 22  1  0
 18 27  1  0
 19 27  1  0
 20 28  1  0
 21 29  1  0
 22 30  1  0
 25 30  2  0
 26 30  2  0
M  END
>  <washed_aromatic_smiles>  (834) 
COc1ccc(cc1)/C=C/C(=O)Nc2cc(ccc2OC)S(=O)(=O)N3CCOCC3

>  <name>  (834) 
neg2398

$$$$
neg96811
     RDKit          3D

 32 34  0  0  0  0  0  0  0  0999 V2000
    5.6080   -0.2260   58.9990 C   0  0  0  0  0  0  0  0  0  0  0  0
    5.5290    8.0530   58.9480 C   0  0  0  0  0  0  0  0  0  0  0  0
    4.6360    8.1540   56.7100 C   0  0  0  0  0  0  0  0  0  0  0  0
    2.5190   -0.8310   51.6420 C   0  0  0  0  0  0  0  0  0  0  0  0
    1.1190    0.4670   53.0870 C   0  0  0  0  0  0  0  0  0  0  0  0
    5.5750    9.4440   58.9710 C   0  0  0  0  0  0  0  0  0  0  0  0
    4.6890    9.5380   56.7290 C   0  0  0  0  0  0  0  0  0  0  0  0
    1.7040   -0.5440   50.5650 C   0  0  0  0  0  0  0  0  0  0  0  0
    0.3240    0.8140   51.9990 C   0  0  0  0  0  0  0  0  0  0  0  0
    5.9850    0.8850   59.7450 C   0  0  0  0  0  0  0  0  0  0  0  0
    4.8670   -0.0430   57.8370 C   0  0  0  0  0  0  0  0  0  0  0  0
    5.0630    7.3820   57.8080 C   0  0  0  0  0  0  0  0  0  0  0  0
    2.2090   -0.4040   52.9320 C   0  0  0  0  0  0  0  0  0  0  0  0
    5.1670   10.1820   57.8610 C   0  0  0  0  0  0  0  0  0  0  0  0
    0.6090    0.2930   50.7410 C   0  0  0  0  0  0  0  0  0  0  0  0
    5.6650    2.1760   59.2990 C   0  0  0  0  0  0  0  0  0  0  0  0
    4.4890    1.2530   57.4550 C   0  0  0  0  0  0  0  0  0  0  0  0
    4.9730    5.9420   57.6610 C   0  0  0  0  0  0  0  0  0  0  0  0
    2.9810   -0.9920   54.0140 C   0  0  0  0  0  0  0  0  0  0  0  0
    6.0940    3.3880   60.0580 C   0  0  0  0  0  0  0  0  0  0  0  0
    3.5760    1.6150   56.3480 C   0  0  0  0  0  0  0  0  0  0  0  0
    5.6470   12.4100   58.9270 C   0  0  0  0  0  0  0  0  0  0  0  0
    0.0060    0.1260   48.3460 C   0  0  0  0  0  0  0  0  0  0  0  0
    4.9420    2.2830   58.1780 N   0  0  0  0  0  0  0  0  0  0  0  0
    5.3150    4.9650   58.3980 N   0  0  0  0  0  0  0  0  0  0  0  0
    3.3910   -0.4790   55.1060 N   0  0  0  0  0  0  0  0  0  0  0  0
    5.8900    4.7120   59.6140 N   0  0  0  0  0  0  0  0  0  0  0  0
    3.1210    0.8250   55.3270 N   0  0  0  0  0  0  0  0  0  0  0  0
    6.6630    3.3030   61.1410 O   0  0  0  0  0  0  0  0  0  0  0  0
    3.1260    2.7370   56.2290 O   0  0  0  0  0  0  0  0  0  0  0  0
    5.2310   11.5590   57.8320 O   0  0  0  0  0  0  0  0  0  0  0  0
   -0.2120    0.6170   49.6910 O   0  0  0  0  0  0  0  0  0  0  0  0
  1 10  2  0
  1 11  1  0
  2  6  2  0
  2 12  1  0
  3  7  1  0
  3 12  2  0
  4  8  2  0
  4 13  1  0
  5  9  1  0
  5 13  2  0
  6 14  1  0
  7 14  2  0
  8 15  1  0
  9 15  2  0
 10 16  1  0
 11 17  2  0
 12 18  1  0
 13 19  1  0
 14 31  1  0
 15 32  1  0
 16 20  1  0
 16 24  2  0
 17 21  1  0
 17 24  1  0
 18 25  2  0
 19 26  2  0
 20 27  1  0
 20 29  2  0
 21 28  1  0
 21 30  2  0
 22 31  1  0
 23 32  1  0
 25 27  1  0
 26 28  1  0
M  END
>  <washed_aromatic_smiles>  (835) 
COc1ccc(cc1)/C=N/NC(=O)c2nc(ccc2)C(=O)N/N=C/c3ccc(cc3)OC

>  <name>  (835) 
neg96811

$$$$
neg224285
     RDKit          3D

 26 27  0  0  0  0  0  0  0  0999 V2000
    2.4300   -1.0690   52.4990 C   0  0  0  0  0  0  0  0  0  0  0  0
    2.0880    1.2760   52.2860 C   0  0  0  0  0  0  0  0  0  0  0  0
    2.9440    6.7600   50.8080 C   0  0  0  0  0  0  0  0  0  0  0  0
    2.9570   -0.8690   53.7760 C   0  0  0  0  0  0  0  0  0  0  0  0
    2.6370    1.4870   53.5410 C   0  0  0  0  0  0  0  0  0  0  0  0
    3.0740    7.9230   51.5620 C   0  0  0  0  0  0  0  0  0  0  0  0
    1.1740    6.0530   52.2500 C   0  0  0  0  0  0  0  0  0  0  0  0
    1.9810    0.0050   51.7330 C   0  0  0  0  0  0  0  0  0  0  0  0
    2.0170    5.7960   51.1720 C   0  0  0  0  0  0  0  0  0  0  0  0
    3.0480    0.4130   54.3040 C   0  0  0  0  0  0  0  0  0  0  0  0
    2.3710    8.0920   52.7370 C   0  0  0  0  0  0  0  0  0  0  0  0
    1.3900    7.1600   53.0630 C   0  0  0  0  0  0  0  0  0  0  0  0
    1.3280    0.8670   49.2980 C   0  0  0  0  0  0  0  0  0  0  0  0
    2.1190    4.2230   49.0160 C   0  0  0  0  0  0  0  0  0  0  0  0
    4.4400   -0.0570   56.4170 C   0  0  0  0  0  0  0  0  0  0  0  0
    4.0440    9.6660   53.6550 C   0  0  0  0  0  0  0  0  0  0  0  0
    0.2770    8.4100   54.8950 C   0  0  0  0  0  0  0  0  0  0  0  0
    1.3250   -0.2330   50.3620 C   0  0  0  0  0  0  0  0  0  0  0  0
    1.9940    4.4290   50.5230 C   0  0  0  0  0  0  0  0  0  0  0  0
    1.9860    1.9430   49.4170 N   0  0  0  0  0  0  0  0  0  0  0  0
    0.5280    0.6460   48.1880 N   0  0  0  0  0  0  0  0  0  0  0  0
    2.3890    5.0980   48.2390 O   0  0  0  0  0  0  0  0  0  0  0  0
    3.5230    0.6960   55.5770 O   0  0  0  0  0  0  0  0  0  0  0  0
    2.6930    9.1500   53.5670 O   0  0  0  0  0  0  0  0  0  0  0  0
    0.6590    7.2320   54.2040 O   0  0  0  0  0  0  0  0  0  0  0  0
    1.9300    2.9680   48.5030 O   0  0  0  0  0  0  0  0  0  0  0  0
  1  4  2  0
  1  8  1  0
  2  5  1  0
  2  8  2  0
  3  6  2  0
  3  9  1  0
  4 10  1  0
  5 10  2  0
  6 11  1  0
  7  9  2  0
  7 12  1  0
  8 18  1  0
  9 19  1  0
 10 23  1  0
 11 12  2  0
 11 24  1  0
 12 25  1  0
 13 18  1  0
 13 20  2  0
 13 21  1  0
 14 19  1  0
 14 22  2  0
 14 26  1  0
 15 23  1  0
 16 24  1  0
 17 25  1  0
 20 26  1  0
M  END
>  <washed_aromatic_smiles>  (836) 
COc1ccc(cc1)C/C(=N/OC(=O)Cc2ccc(c(c2)OC)OC)/N

>  <name>  (836) 
neg224285

$$$$
neg22457
     RDKit          3D

 26 28  0  0  0  0  0  0  0  0999 V2000
    2.2000    0.8690   53.5340 C   0  0  0  0  0  0  0  0  0  0  0  0
    3.2160   -1.1610   54.2130 C   0  0  0  0  0  0  0  0  0  0  0  0
    2.6340    1.4520   54.7230 C   0  0  0  0  0  0  0  0  0  0  0  0
    3.6290   -0.6040   55.4160 C   0  0  0  0  0  0  0  0  0  0  0  0
    0.9770    5.4190   51.4020 C   0  0  0  0  0  0  0  0  0  0  0  0
    0.9900    6.3210   52.4780 C   0  0  0  0  0  0  0  0  0  0  0  0
    2.5570   -0.4370   53.2380 C   0  0  0  0  0  0  0  0  0  0  0  0
    3.3560    0.7290   55.6520 C   0  0  0  0  0  0  0  0  0  0  0  0
    1.9300    5.6560   50.4550 C   0  0  0  0  0  0  0  0  0  0  0  0
    2.0120    7.2140   52.3870 C   0  0  0  0  0  0  0  0  0  0  0  0
    1.6840   -0.6220   50.6770 C   0  0  0  0  0  0  0  0  0  0  0  0
    2.9750    1.3800   50.5400 C   0  0  0  0  0  0  0  0  0  0  0  0
    1.0690    0.9880   48.9980 C   0  0  0  0  0  0  0  0  0  0  0  0
    2.5970    2.8300   50.5450 C   0  0  0  0  0  0  0  0  0  0  0  0
    1.2050    2.4370   48.5430 C   0  0  0  0  0  0  0  0  0  0  0  0
    4.8890    0.9240   57.6020 C   0  0  0  0  0  0  0  0  0  0  0  0
    2.4600   -1.1270   51.8790 C   0  0  0  0  0  0  0  0  0  0  0  0
    1.7960    0.6200   50.2350 N   0  0  0  0  0  0  0  0  0  0  0  0
    2.2220    3.2480   49.2230 N   0  0  0  0  0  0  0  0  0  0  0  0
    1.1300   -1.4040   49.9260 O   0  0  0  0  0  0  0  0  0  0  0  0
    1.2690    5.1180   47.9360 O   0  0  0  0  0  0  0  0  0  0  0  0
    3.6190    5.1850   48.5160 O   0  0  0  0  0  0  0  0  0  0  0  0
    3.7930    1.3850   56.7820 O   0  0  0  0  0  0  0  0  0  0  0  0
    2.9470    6.9440   50.9700 S   0  0  0  0  0  0  0  0  0  0  0  0
    2.2900    4.8410   48.8860 S   0  0  0  0  0  0  0  0  0  0  0  0
    2.4080    8.4730   53.4930 Cl  0  0  0  0  0  0  0  0  0  0  0  0
  1  3  2  0
  1  7  1  0
  2  4  1  0
  2  7  2  0
  3  8  1  0
  4  8  2  0
  5  6  1  0
  5  9  2  0
  6 10  2  0
  7 17  1  0
  8 23  1  0
  9 24  1  0
  9 25  1  0
 10 24  1  0
 10 26  1  0
 11 17  1  0
 11 18  1  0
 11 20  2  0
 12 14  1  0
 12 18  1  0
 13 15  1  0
 13 18  1  0
 14 19  1  0
 15 19  1  0
 16 23  1  0
 19 25  1  0
 21 25  2  0
 22 25  2  0
M  END
>  <washed_aromatic_smiles>  (837) 
COc1ccc(cc1)CC(=O)N2CCN(CC2)S(=O)(=O)c3ccc(s3)Cl

>  <name>  (837) 
neg22457

$$$$
neg86671
     RDKit          3D

 26 28  0  0  0  0  0  0  0  0999 V2000
    4.5340    9.1130   56.7920 C   0  0  0  0  0  0  0  0  0  0  0  0
    5.0510    9.6170   57.9770 C   0  0  0  0  0  0  0  0  0  0  0  0
    4.4350    7.7390   56.6160 C   0  0  0  0  0  0  0  0  0  0  0  0
    5.4720    8.7490   58.9770 C   0  0  0  0  0  0  0  0  0  0  0  0
    4.8590    6.8690   57.6170 C   0  0  0  0  0  0  0  0  0  0  0  0
    2.8530    1.5590   54.0280 C   0  0  0  0  0  0  0  0  0  0  0  0
    3.1250   -0.7890   54.0990 C   0  0  0  0  0  0  0  0  0  0  0  0
    2.4450    1.4660   52.6940 C   0  0  0  0  0  0  0  0  0  0  0  0
    2.6090   -0.9200   52.8170 C   0  0  0  0  0  0  0  0  0  0  0  0
    5.3950    7.3570   58.8180 C   0  0  0  0  0  0  0  0  0  0  0  0
    3.2820    0.4370   54.7320 C   0  0  0  0  0  0  0  0  0  0  0  0
    2.2950    0.2190   52.1000 C   0  0  0  0  0  0  0  0  0  0  0  0
    5.8200    6.4680   59.9170 C   0  0  0  0  0  0  0  0  0  0  0  0
    4.3930    1.4860   58.4700 C   0  0  0  0  0  0  0  0  0  0  0  0
    6.7250    4.4870   58.7380 C   0  0  0  0  0  0  0  0  0  0  0  0
    5.3730    4.1620   60.7780 C   0  0  0  0  0  0  0  0  0  0  0  0
    6.0060    3.3260   58.0350 C   0  0  0  0  0  0  0  0  0  0  0  0
    5.4810    2.6680   60.3710 C   0  0  0  0  0  0  0  0  0  0  0  0
    1.3330    1.1230   49.9840 C   0  0  0  0  0  0  0  0  0  0  0  0
    4.0470    0.4810   56.0870 C   0  0  0  0  0  0  0  0  0  0  0  0
    3.7210    1.5980   57.0690 C   0  0  0  0  0  0  0  0  0  0  0  0
    5.8690    5.0980   59.7480 N   0  0  0  0  0  0  0  0  0  0  0  0
    5.2400    2.4440   58.9230 N   0  0  0  0  0  0  0  0  0  0  0  0
    6.1320    6.9010   61.0240 O   0  0  0  0  0  0  0  0  0  0  0  0
    4.0320    0.5780   59.2150 O   0  0  0  0  0  0  0  0  0  0  0  0
    1.8530    0.0550   50.8030 O   0  0  0  0  0  0  0  0  0  0  0  0
  1  2  2  0
  1  3  1  0
  2  4  1  0
  3  5  2  0
  4 10  2  0
  5 10  1  0
  6  8  2  0
  6 11  1  0
  7  9  1  0
  7 11  2  0
  8 12  1  0
  9 12  2  0
 10 13  1  0
 11 20  1  0
 12 26  1  0
 13 22  1  0
 13 24  2  0
 14 21  1  0
 14 23  1  0
 14 25  2  0
 15 17  1  0
 15 22  1  0
 16 18  1  0
 16 22  1  0
 17 23  1  0
 18 23  1  0
 19 26  1  0
 20 21  1  0
M  END
>  <washed_aromatic_smiles>  (838) 
COc1ccc(cc1)CCC(=O)N2CCN(CC2)C(=O)c3ccccc3

>  <name>  (838) 
neg86671

$$$$
neg86299
     RDKit          3D

 25 26  0  0  0  0  0  0  0  0999 V2000
    2.4600    3.0500   50.8130 C   0  0  0  0  0  0  0  0  0  0  0  0
    1.9100    4.2710   48.8100 C   0  0  0  0  0  0  0  0  0  0  0  0
    1.9390    1.8880   50.2560 C   0  0  0  0  0  0  0  0  0  0  0  0
    1.3890    3.1140   48.2430 C   0  0  0  0  0  0  0  0  0  0  0  0
    5.3680   12.3630   55.3300 C   0  0  0  0  0  0  0  0  0  0  0  0
    5.5450   12.7320   56.6540 C   0  0  0  0  0  0  0  0  0  0  0  0
    4.8880   10.5130   57.3700 C   0  0  0  0  0  0  0  0  0  0  0  0
    4.6820   10.1190   56.0410 C   0  0  0  0  0  0  0  0  0  0  0  0
    2.4380    4.2550   50.1020 C   0  0  0  0  0  0  0  0  0  0  0  0
    1.3940    1.9300   48.9720 C   0  0  0  0  0  0  0  0  0  0  0  0
    4.9680   11.0600   55.0240 C   0  0  0  0  0  0  0  0  0  0  0  0
    5.3380   11.7980   57.6680 C   0  0  0  0  0  0  0  0  0  0  0  0
    4.2150    8.7560   55.7690 C   0  0  0  0  0  0  0  0  0  0  0  0
    2.8980    7.1080   52.7680 C   0  0  0  0  0  0  0  0  0  0  0  0
    0.4790   -0.3640   49.1170 C   0  0  0  0  0  0  0  0  0  0  0  0
    5.9050   10.9840   52.7370 C   0  0  0  0  0  0  0  0  0  0  0  0
    2.9840    5.5430   50.7020 C   0  0  0  0  0  0  0  0  0  0  0  0
    2.6610    5.7250   52.1960 C   0  0  0  0  0  0  0  0  0  0  0  0
    3.5010    8.5320   54.6290 N   0  0  0  0  0  0  0  0  0  0  0  0
    3.2410    7.2110   54.0810 N   0  0  0  0  0  0  0  0  0  0  0  0
    4.4280    7.8030   56.5260 O   0  0  0  0  0  0  0  0  0  0  0  0
    2.7640    8.1270   52.1130 O   0  0  0  0  0  0  0  0  0  0  0  0
    0.8350    0.8200   48.3790 O   0  0  0  0  0  0  0  0  0  0  0  0
    4.8670   10.7060   53.6980 O   0  0  0  0  0  0  0  0  0  0  0  0
    5.6950   12.2360   59.2980 Cl  0  0  0  0  0  0  0  0  0  0  0  0
  1  3  2  0
  1  9  1  0
  2  4  1  0
  2  9  2  0
  3 10  1  0
  4 10  2  0
  5  6  2  0
  5 11  1  0
  6 12  1  0
  7  8  1  0
  7 12  2  0
  8 11  2  0
  8 13  1  0
  9 17  1  0
 10 23  1  0
 11 24  1  0
 12 25  1  0
 13 19  1  0
 13 21  2  0
 14 18  1  0
 14 20  1  0
 14 22  2  0
 15 23  1  0
 16 24  1  0
 17 18  1  0
 19 20  1  0
M  END
>  <washed_aromatic_smiles>  (839) 
COc1ccc(cc1)CCC(=O)NNC(=O)c2cc(ccc2OC)Cl

>  <name>  (839) 
neg86299

$$$$
neg140124
     RDKit          3D

 29 30  0  0  0  0  0  0  0  0999 V2000
    1.8210    3.4210   49.8020 C   0  0  0  0  0  0  0  0  0  0  0  0
    2.7400    2.2990   51.7310 C   0  0  0  0  0  0  0  0  0  0  0  0
    1.4690    2.1940   49.2550 C   0  0  0  0  0  0  0  0  0  0  0  0
    2.3880    1.0690   51.1950 C   0  0  0  0  0  0  0  0  0  0  0  0
    4.6100    9.1120   56.8860 C   0  0  0  0  0  0  0  0  0  0  0  0
    5.1980   11.8610   56.9060 C   0  0  0  0  0  0  0  0  0  0  0  0
    4.4680    9.8600   55.7080 C   0  0  0  0  0  0  0  0  0  0  0  0
    2.4230    3.4840   51.0620 C   0  0  0  0  0  0  0  0  0  0  0  0
    1.7120    1.0260   49.9820 C   0  0  0  0  0  0  0  0  0  0  0  0
    5.0620    9.7320   58.0530 C   0  0  0  0  0  0  0  0  0  0  0  0
    4.8160   11.2220   55.7270 C   0  0  0  0  0  0  0  0  0  0  0  0
    5.3060   11.1140   58.0750 C   0  0  0  0  0  0  0  0  0  0  0  0
    3.9550    9.2740   54.4840 C   0  0  0  0  0  0  0  0  0  0  0  0
    1.6570    7.6710   52.5140 C   0  0  0  0  0  0  0  0  0  0  0  0
    0.3000   -0.3360   48.5110 C   0  0  0  0  0  0  0  0  0  0  0  0
    5.5980    7.5800   59.2020 C   0  0  0  0  0  0  0  0  0  0  0  0
    5.0350   13.3170   54.4210 C   0  0  0  0  0  0  0  0  0  0  0  0
    6.2200   13.0700   59.3920 C   0  0  0  0  0  0  0  0  0  0  0  0
    2.6100    4.7970   51.7950 C   0  0  0  0  0  0  0  0  0  0  0  0
    1.8370    8.9520   53.2830 C   0  0  0  0  0  0  0  0  0  0  0  0
    2.7350    6.0690   50.9760 C   0  0  0  0  0  0  0  0  0  0  0  0
    2.7460    7.1980   51.8930 N   0  0  0  0  0  0  0  0  0  0  0  0
    4.5830    9.2320   53.4390 O   0  0  0  0  0  0  0  0  0  0  0  0
    0.5560    7.1230   52.4590 O   0  0  0  0  0  0  0  0  0  0  0  0
    1.2660   -0.2010   49.5600 O   0  0  0  0  0  0  0  0  0  0  0  0
    5.3160    8.9990   59.2020 O   0  0  0  0  0  0  0  0  0  0  0  0
    4.7680   11.9170   54.5410 O   0  0  0  0  0  0  0  0  0  0  0  0
    5.6870   11.7200   59.2630 O   0  0  0  0  0  0  0  0  0  0  0  0
    2.6680    8.8480   54.4900 O   0  0  0  0  0  0  0  0  0  0  0  0
  1  3  2  0
  1  8  1  0
  2  4  1  0
  2  8  2  0
  3  9  1  0
  4  9  2  0
  5  7  2  0
  5 10  1  0
  6 11  2  0
  6 12  1  0
  7 11  1  0
  7 13  1  0
  8 19  1  0
  9 25  1  0
 10 12  2  0
 10 26  1  0
 11 27  1  0
 12 28  1  0
 13 23  2  0
 13 29  1  0
 14 20  1  0
 14 22  1  0
 14 24  2  0
 15 25  1  0
 16 26  1  0
 17 27  1  0
 18 28  1  0
 19 21  1  0
 20 29  1  0
 21 22  1  0
M  END
>  <washed_aromatic_smiles>  (840) 
COc1ccc(cc1)CCNC(=O)COC(=O)c2cc(c(cc2OC)OC)OC

>  <name>  (840) 
neg140124

$$$$
neg20433
     RDKit          3D

 30 32  0  0  0  0  0  0  0  0999 V2000
    1.9370    4.6420   48.9720 C   0  0  0  0  0  0  0  0  0  0  0  0
    2.9740    8.9790   55.0220 C   0  0  0  0  0  0  0  0  0  0  0  0
    4.5070   10.0320   53.4870 C   0  0  0  0  0  0  0  0  0  0  0  0
    3.5320    9.6930   56.0780 C   0  0  0  0  0  0  0  0  0  0  0  0
    5.0650   10.7590   54.5330 C   0  0  0  0  0  0  0  0  0  0  0  0
    1.3490    3.9540   47.9330 C   0  0  0  0  0  0  0  0  0  0  0  0
    1.6120    2.7240   50.3520 C   0  0  0  0  0  0  0  0  0  0  0  0
    2.0210    4.0590   50.2270 C   0  0  0  0  0  0  0  0  0  0  0  0
    3.4470    9.1510   53.7200 C   0  0  0  0  0  0  0  0  0  0  0  0
    4.5590   10.6000   55.8240 C   0  0  0  0  0  0  0  0  0  0  0  0
    1.0640    1.9840   49.2990 C   0  0  0  0  0  0  0  0  0  0  0  0
    0.9340    2.6280   48.0680 C   0  0  0  0  0  0  0  0  0  0  0  0
    2.4890    4.8130   51.3880 C   0  0  0  0  0  0  0  0  0  0  0  0
    3.6880    0.5980   52.5100 C   0  0  0  0  0  0  0  0  0  0  0  0
    2.6220    1.1220   53.4300 C   0  0  0  0  0  0  0  0  0  0  0  0
    3.5070    0.1030   51.0920 C   0  0  0  0  0  0  0  0  0  0  0  0
    1.3580    0.2820   53.4520 C   0  0  0  0  0  0  0  0  0  0  0  0
    2.3680   -0.8940   51.0010 C   0  0  0  0  0  0  0  0  0  0  0  0
    0.4970    0.2710   52.1820 C   0  0  0  0  0  0  0  0  0  0  0  0
    5.4910   12.7100   56.7010 C   0  0  0  0  0  0  0  0  0  0  0  0
    2.7920    8.4300   52.5540 C   0  0  0  0  0  0  0  0  0  0  0  0
    2.7540    6.9100   52.6930 C   0  0  0  0  0  0  0  0  0  0  0  0
    1.0900   -0.2320   50.9360 N   0  0  0  0  0  0  0  0  0  0  0  0
    2.3890    6.1850   51.4590 N   0  0  0  0  0  0  0  0  0  0  0  0
    2.9540    4.2530   52.3630 O   0  0  0  0  0  0  0  0  0  0  0  0
   -0.9290    0.2800   49.6180 O   0  0  0  0  0  0  0  0  0  0  0  0
    1.0110   -0.5210   48.4410 O   0  0  0  0  0  0  0  0  0  0  0  0
    5.0380   11.3470   56.8790 O   0  0  0  0  0  0  0  0  0  0  0  0
    0.4810    0.2740   49.4970 S   0  0  0  0  0  0  0  0  0  0  0  0
    0.2330    1.8170   46.7020 Cl  0  0  0  0  0  0  0  0  0  0  0  0
  1  6  2  0
  1  8  1  0
  2  4  2  0
  2  9  1  0
  3  5  1  0
  3  9  2  0
  4 10  1  0
  5 10  2  0
  6 12  1  0
  7  8  2  0
  7 11  1  0
  8 13  1  0
  9 21  1  0
 10 28  1  0
 11 12  2  0
 11 29  1  0
 12 30  1  0
 13 24  1  0
 13 25  2  0
 14 15  1  0
 14 16  1  0
 15 17  1  0
 16 18  1  0
 17 19  1  0
 18 23  1  0
 19 23  1  0
 20 28  1  0
 21 22  1  0
 22 24  1  0
 23 29  1  0
 26 29  2  0
 27 29  2  0
M  END
>  <washed_aromatic_smiles>  (841) 
COc1ccc(cc1)CCNC(=O)c2ccc(c(c2)S(=O)(=O)N3CCCCCC3)Cl

>  <name>  (841) 
neg20433

$$$$
neg20769
     RDKit          3D

 28 30  0  0  0  0  0  0  0  0999 V2000
    2.4260    3.6030   48.3460 C   0  0  0  0  0  0  0  0  0  0  0  0
    1.7980    3.9480   50.6270 C   0  0  0  0  0  0  0  0  0  0  0  0
    5.0860    8.4880   53.8500 C   0  0  0  0  0  0  0  0  0  0  0  0
    3.3150    9.8600   53.0160 C   0  0  0  0  0  0  0  0  0  0  0  0
    5.8940    9.5970   54.0040 C   0  0  0  0  0  0  0  0  0  0  0  0
    4.1170   10.9850   53.1870 C   0  0  0  0  0  0  0  0  0  0  0  0
    1.7100    2.3960   48.3440 C   0  0  0  0  0  0  0  0  0  0  0  0
    1.1700    2.7440   50.6030 C   0  0  0  0  0  0  0  0  0  0  0  0
    2.5110    4.3770   49.5170 C   0  0  0  0  0  0  0  0  0  0  0  0
    3.7930    8.6000   53.3480 C   0  0  0  0  0  0  0  0  0  0  0  0
    5.3790   10.8550   53.7370 C   0  0  0  0  0  0  0  0  0  0  0  0
    1.1710    1.9040   49.5230 C   0  0  0  0  0  0  0  0  0  0  0  0
    3.2490    5.6200   49.6760 C   0  0  0  0  0  0  0  0  0  0  0  0
    2.8480   -0.6180   53.7120 C   0  0  0  0  0  0  0  0  0  0  0  0
    1.4610   -0.0590   53.8410 C   0  0  0  0  0  0  0  0  0  0  0  0
    2.7100   -1.5250   52.5070 C   0  0  0  0  0  0  0  0  0  0  0  0
    0.9910    0.5550   52.5320 C   0  0  0  0  0  0  0  0  0  0  0  0
    2.4960   -0.7710   51.2060 C   0  0  0  0  0  0  0  0  0  0  0  0
    5.4520   13.0410   54.7820 C   0  0  0  0  0  0  0  0  0  0  0  0
    2.9550    7.3740   53.0380 C   0  0  0  0  0  0  0  0  0  0  0  0
    2.7860    7.1660   51.5200 C   0  0  0  0  0  0  0  0  0  0  0  0
    1.1820   -0.1950   51.2590 N   0  0  0  0  0  0  0  0  0  0  0  0
    3.4530    5.9890   50.9820 N   0  0  0  0  0  0  0  0  0  0  0  0
    3.6580    6.3260   48.7630 O   0  0  0  0  0  0  0  0  0  0  0  0
   -0.9460    0.4830   50.1170 O   0  0  0  0  0  0  0  0  0  0  0  0
    0.7660   -0.5810   48.7750 O   0  0  0  0  0  0  0  0  0  0  0  0
    6.1000   11.9720   54.0490 O   0  0  0  0  0  0  0  0  0  0  0  0
    0.4360    0.2990   49.8470 S   0  0  0  0  0  0  0  0  0  0  0  0
  1  7  2  0
  1  9  1  0
  2  8  1  0
  2  9  2  0
  3  5  2  0
  3 10  1  0
  4  6  1  0
  4 10  2  0
  5 11  1  0
  6 11  2  0
  7 12  1  0
  8 12  2  0
  9 13  1  0
 10 20  1  0
 11 27  1  0
 12 28  1  0
 13 23  1  0
 13 24  2  0
 14 15  1  0
 14 16  1  0
 15 17  1  0
 16 18  1  0
 17 22  1  0
 18 22  1  0
 19 27  1  0
 20 21  1  0
 21 23  1  0
 22 28  1  0
 25 28  2  0
 26 28  2  0
M  END
>  <washed_aromatic_smiles>  (842) 
COc1ccc(cc1)CCNC(=O)c2ccc(cc2)S(=O)(=O)N3CCCCC3

>  <name>  (842) 
neg20769

$$$$
neg203463
     RDKit          3D

 29 31  0  0  0  0  0  0  0  0999 V2000
    0.2850    8.2480   54.0680 C   0  0  0  0  0  0  0  0  0  0  0  0
    2.4510    8.3270   55.0990 C   0  0  0  0  0  0  0  0  0  0  0  0
   -0.8970    8.7680   58.6030 C   0  0  0  0  0  0  0  0  0  0  0  0
   -1.3470    7.0800   57.1200 C   0  0  0  0  0  0  0  0  0  0  0  0
    0.9950    1.1760   48.8750 C   0  0  0  0  0  0  0  0  0  0  0  0
    0.9840    1.2300   51.2870 C   0  0  0  0  0  0  0  0  0  0  0  0
    0.8340    7.5690   52.9800 C   0  0  0  0  0  0  0  0  0  0  0  0
    3.0090    7.6590   54.0280 C   0  0  0  0  0  0  0  0  0  0  0  0
   -0.2010    0.4800   48.8810 C   0  0  0  0  0  0  0  0  0  0  0  0
   -0.2440    0.6030   51.2980 C   0  0  0  0  0  0  0  0  0  0  0  0
   -1.7300    8.2480   59.5710 C   0  0  0  0  0  0  0  0  0  0  0  0
   -2.3190    6.5630   57.9910 C   0  0  0  0  0  0  0  0  0  0  0  0
    1.0500    8.5050   55.2080 C   0  0  0  0  0  0  0  0  0  0  0  0
   -0.6200    8.2220   57.3780 C   0  0  0  0  0  0  0  0  0  0  0  0
    1.5530    1.5990   50.0780 C   0  0  0  0  0  0  0  0  0  0  0  0
   -0.8750    0.3210   50.0940 C   0  0  0  0  0  0  0  0  0  0  0  0
    2.1860    7.2020   53.0130 C   0  0  0  0  0  0  0  0  0  0  0  0
   -2.4430    7.1320   59.2440 C   0  0  0  0  0  0  0  0  0  0  0  0
    0.5180    8.8000   56.5740 C   0  0  0  0  0  0  0  0  0  0  0  0
    2.9080    4.9700   50.0870 C   0  0  0  0  0  0  0  0  0  0  0  0
   -3.0320   -0.6200   49.1140 C   0  0  0  0  0  0  0  0  0  0  0  0
    2.7310    2.5080   50.1010 C   0  0  0  0  0  0  0  0  0  0  0  0
    2.4220    6.2360   50.7430 C   0  0  0  0  0  0  0  0  0  0  0  0
    2.3880    3.8390   50.5780 N   0  0  0  0  0  0  0  0  0  0  0  0
    1.3440    9.3850   57.2320 O   0  0  0  0  0  0  0  0  0  0  0  0
    3.7140    4.9890   49.1570 O   0  0  0  0  0  0  0  0  0  0  0  0
   -2.2140   -0.0390   50.1520 O   0  0  0  0  0  0  0  0  0  0  0  0
    2.7780    6.3500   52.1190 O   0  0  0  0  0  0  0  0  0  0  0  0
   -3.2130    6.6270   60.2030 F   0  0  0  0  0  0  0  0  0  0  0  0
  1  7  2  0
  1 13  1  0
  2  8  1  0
  2 13  2  0
  3 11  2  0
  3 14  1  0
  4 12  1  0
  4 14  2  0
  5  9  2  0
  5 15  1  0
  6 10  1  0
  6 15  2  0
  7 17  1  0
  8 17  2  0
  9 16  1  0
 10 16  2  0
 11 18  1  0
 12 18  2  0
 13 19  1  0
 14 19  1  0
 15 22  1  0
 16 27  1  0
 17 28  1  0
 18 29  1  0
 19 25  2  0
 20 23  1  0
 20 24  1  0
 20 26  2  0
 21 27  1  0
 22 24  1  0
 23 28  1  0
M  END
>  <washed_aromatic_smiles>  (843) 
COc1ccc(cc1)CNC(=O)COc2ccc(cc2)C(=O)c3ccc(cc3)F

>  <name>  (843) 
neg203463

$$$$
neg83583
     RDKit          3D

 26 28  0  0  0  0  0  0  0  0999 V2000
    3.8160   10.4980   56.8930 C   0  0  0  0  0  0  0  0  0  0  0  0
    4.6480   11.5080   56.4150 C   0  0  0  0  0  0  0  0  0  0  0  0
    1.2260    1.6000   49.2490 C   0  0  0  0  0  0  0  0  0  0  0  0
    1.0730    1.1850   51.6180 C   0  0  0  0  0  0  0  0  0  0  0  0
    3.3890    9.4740   56.0500 C   0  0  0  0  0  0  0  0  0  0  0  0
    5.0630   11.5010   55.0860 C   0  0  0  0  0  0  0  0  0  0  0  0
    0.0610    0.8750   49.0390 C   0  0  0  0  0  0  0  0  0  0  0  0
   -0.1200    0.5160   51.4220 C   0  0  0  0  0  0  0  0  0  0  0  0
    1.6980    1.8080   50.5450 C   0  0  0  0  0  0  0  0  0  0  0  0
    3.8060    9.4520   54.7130 C   0  0  0  0  0  0  0  0  0  0  0  0
   -0.6670    0.4430   50.1490 C   0  0  0  0  0  0  0  0  0  0  0  0
    4.6430   10.4750   54.2370 C   0  0  0  0  0  0  0  0  0  0  0  0
    2.2140    5.0030   51.4320 C   0  0  0  0  0  0  0  0  0  0  0  0
    3.3220    7.0640   54.3960 C   0  0  0  0  0  0  0  0  0  0  0  0
    2.3300    8.5680   52.9170 C   0  0  0  0  0  0  0  0  0  0  0  0
    3.5860    6.0280   53.2880 C   0  0  0  0  0  0  0  0  0  0  0  0
    2.2120    7.4230   51.8660 C   0  0  0  0  0  0  0  0  0  0  0  0
   -2.7450   -0.5220   48.9520 C   0  0  0  0  0  0  0  0  0  0  0  0
    6.2650   11.0260   52.4390 C   0  0  0  0  0  0  0  0  0  0  0  0
    2.8800    2.6980   50.7900 C   0  0  0  0  0  0  0  0  0  0  0  0
    3.4520    8.3900   53.8450 N   0  0  0  0  0  0  0  0  0  0  0  0
    2.5220    6.0590   52.2880 N   0  0  0  0  0  0  0  0  0  0  0  0
    2.6950    3.7640   51.7710 N   0  0  0  0  0  0  0  0  0  0  0  0
    1.5310    5.1540   50.4150 O   0  0  0  0  0  0  0  0  0  0  0  0
   -1.9880    0.0270   50.0700 O   0  0  0  0  0  0  0  0  0  0  0  0
    5.0490   10.4330   52.9140 O   0  0  0  0  0  0  0  0  0  0  0  0
  1  2  2  0
  1  5  1  0
  2  6  1  0
  3  7  2  0
  3  9  1  0
  4  8  1  0
  4  9  2  0
  5 10  2  0
  6 12  2  0
  7 11  1  0
  8 11  2  0
  9 20  1  0
 10 12  1  0
 10 21  1  0
 11 25  1  0
 12 26  1  0
 13 22  1  0
 13 23  1  0
 13 24  2  0
 14 16  1  0
 14 21  1  0
 15 17  1  0
 15 21  1  0
 16 22  1  0
 17 22  1  0
 18 25  1  0
 19 26  1  0
 20 23  1  0
M  END
>  <washed_aromatic_smiles>  (844) 
COc1ccc(cc1)CNC(=O)N2CCN(CC2)c3ccccc3OC

>  <name>  (844) 
neg83583

$$$$
neg67607
     RDKit          3D

 26 28  0  0  0  0  0  0  0  0999 V2000
    2.9450    2.0660   52.7410 C   0  0  0  0  0  0  0  0  0  0  0  0
    2.3810    2.6230   50.4570 C   0  0  0  0  0  0  0  0  0  0  0  0
    2.9620    0.7400   52.4350 C   0  0  0  0  0  0  0  0  0  0  0  0
    2.3010    1.2770   50.1520 C   0  0  0  0  0  0  0  0  0  0  0  0
    1.6340    8.6160   54.4250 C   0  0  0  0  0  0  0  0  0  0  0  0
    3.8860    7.8600   54.6930 C   0  0  0  0  0  0  0  0  0  0  0  0
    1.5900    8.0890   53.1460 C   0  0  0  0  0  0  0  0  0  0  0  0
    3.7930    7.2260   53.4700 C   0  0  0  0  0  0  0  0  0  0  0  0
    2.7200    3.0020   51.7530 C   0  0  0  0  0  0  0  0  0  0  0  0
    2.6080    0.3500   51.1430 C   0  0  0  0  0  0  0  0  0  0  0  0
    2.8040    8.5620   55.1810 C   0  0  0  0  0  0  0  0  0  0  0  0
    2.6850    7.3990   52.6470 C   0  0  0  0  0  0  0  0  0  0  0  0
    5.0780   11.1900   54.7840 C   0  0  0  0  0  0  0  0  0  0  0  0
    5.0020   12.4430   55.6060 C   0  0  0  0  0  0  0  0  0  0  0  0
    4.7200   11.1120   56.2430 C   0  0  0  0  0  0  0  0  0  0  0  0
    2.3130   -1.7810   51.9860 C   0  0  0  0  0  0  0  0  0  0  0  0
    2.8140    4.4100   52.1890 C   0  0  0  0  0  0  0  0  0  0  0  0
    3.3540   10.8050   56.6450 N   0  0  0  0  0  0  0  0  0  0  0  0
    3.3590    5.2370   51.2040 N   0  0  0  0  0  0  0  0  0  0  0  0
    1.5470    9.1640   57.3160 O   0  0  0  0  0  0  0  0  0  0  0  0
    3.8720    8.5160   57.5560 O   0  0  0  0  0  0  0  0  0  0  0  0
    1.1980    6.3170   50.8280 O   0  0  0  0  0  0  0  0  0  0  0  0
    3.2850    7.3860   50.0760 O   0  0  0  0  0  0  0  0  0  0  0  0
    2.4960   -0.9530   50.8530 O   0  0  0  0  0  0  0  0  0  0  0  0
    2.8750    9.2280   56.8250 S   0  0  0  0  0  0  0  0  0  0  0  0
    2.5760    6.6210   51.0390 S   0  0  0  0  0  0  0  0  0  0  0  0
  1  3  2  0
  1  9  1  0
  2  4  1  0
  2  9  2  0
  3 10  1  0
  4 10  2  0
  5  7  2  0
  5 11  1  0
  6  8  1  0
  6 11  2  0
  7 12  1  0
  8 12  2  0
  9 17  1  0
 10 24  1  0
 11 25  1  0
 12 26  1  0
 13 14  1  0
 13 15  1  0
 14 15  1  0
 15 18  1  0
 16 24  1  0
 17 19  1  0
 18 25  1  0
 19 26  1  0
 20 25  2  0
 21 25  2  0
 22 26  2  0
 23 26  2  0
M  END
>  <washed_aromatic_smiles>  (845) 
COc1ccc(cc1)CNS(=O)(=O)c2ccc(cc2)S(=O)(=O)NC3CC3

>  <name>  (845) 
neg67607

$$$$
neg282217
     RDKit          3D

 29 31  0  0  0  0  0  0  0  0999 V2000
    4.6260   10.5250   53.7700 C   0  0  0  0  0  0  0  0  0  0  0  0
    3.2480    9.3250   55.3490 C   0  0  0  0  0  0  0  0  0  0  0  0
    2.5640    0.2550   53.3200 C   0  0  0  0  0  0  0  0  0  0  0  0
    4.2280    0.5930   51.6060 C   0  0  0  0  0  0  0  0  0  0  0  0
    5.1660   11.2790   54.8090 C   0  0  0  0  0  0  0  0  0  0  0  0
    3.7870   10.0660   56.3940 C   0  0  0  0  0  0  0  0  0  0  0  0
    2.0770   -0.8460   52.6540 C   0  0  0  0  0  0  0  0  0  0  0  0
    3.7940   -0.5440   50.9830 C   0  0  0  0  0  0  0  0  0  0  0  0
    3.6530    9.5590   54.0310 C   0  0  0  0  0  0  0  0  0  0  0  0
    3.4210    1.0840   52.6060 C   0  0  0  0  0  0  0  0  0  0  0  0
    4.7290   11.0540   56.1170 C   0  0  0  0  0  0  0  0  0  0  0  0
    2.5800   -1.0730   51.3770 C   0  0  0  0  0  0  0  0  0  0  0  0
    2.9640    6.4400   52.0890 C   0  0  0  0  0  0  0  0  0  0  0  0
    2.8830    4.5430   51.3010 C   0  0  0  0  0  0  0  0  0  0  0  0
    5.6500   13.1600   57.0030 C   0  0  0  0  0  0  0  0  0  0  0  0
    0.9740   -0.6300   49.7020 C   0  0  0  0  0  0  0  0  0  0  0  0
    3.5720    3.7310   48.1330 C   0  0  0  0  0  0  0  0  0  0  0  0
    3.0160    8.7900   52.8920 C   0  0  0  0  0  0  0  0  0  0  0  0
    2.8210    2.4110   52.3990 C   0  0  0  0  0  0  0  0  0  0  0  0
    2.9730    5.1570   52.4250 N   0  0  0  0  0  0  0  0  0  0  0  0
    2.8750    6.6920   50.8290 N   0  0  0  0  0  0  0  0  0  0  0  0
    2.8180    5.4330   50.2970 N   0  0  0  0  0  0  0  0  0  0  0  0
    3.1100    7.3670   53.1230 N   0  0  0  0  0  0  0  0  0  0  0  0
    2.9500    3.1570   51.1550 N   0  0  0  0  0  0  0  0  0  0  0  0
    1.3020    4.8830   48.3050 O   0  0  0  0  0  0  0  0  0  0  0  0
    3.2700    6.2630   47.9530 O   0  0  0  0  0  0  0  0  0  0  0  0
    5.1930   11.8030   57.1750 O   0  0  0  0  0  0  0  0  0  0  0  0
    1.8190   -1.5870   50.4000 O   0  0  0  0  0  0  0  0  0  0  0  0
    2.6590    5.1680   48.6130 S   0  0  0  0  0  0  0  0  0  0  0  0
  1  5  2  0
  1  9  1  0
  2  6  1  0
  2  9  2  0
  3  7  2  0
  3 10  1  0
  4  8  1  0
  4 10  2  0
  5 11  1  0
  6 11  2  0
  7 12  1  0
  8 12  2  0
  9 18  1  0
 10 19  1  0
 11 27  1  0
 12 28  1  0
 13 20  1  0
 13 21  2  0
 13 23  1  0
 14 20  2  0
 14 22  1  0
 14 24  1  0
 15 27  1  0
 16 28  1  0
 17 29  1  0
 18 23  1  0
 19 24  1  0
 21 22  1  0
 22 29  1  0
 25 29  2  0
 26 29  2  0
M  END
>  <washed_aromatic_smiles>  (846) 
COc1ccc(cc1)CNc2nc(n(n2)S(=O)(=O)C)NCc3ccc(cc3)OC

>  <name>  (846) 
neg282217

$$$$
neg251449
     RDKit          3D

 28 31  0  0  0  0  0  0  0  0999 V2000
    2.7560   -0.6320   54.5280 C   0  0  0  0  0  0  0  0  0  0  0  0
    2.8100    0.6810   54.9370 C   0  0  0  0  0  0  0  0  0  0  0  0
    2.7670   -0.9470   53.1730 C   0  0  0  0  0  0  0  0  0  0  0  0
    0.5950    0.3730   46.9430 C   0  0  0  0  0  0  0  0  0  0  0  0
    2.8370    1.6770   53.9900 C   0  0  0  0  0  0  0  0  0  0  0  0
    2.8520    0.0600   52.2240 C   0  0  0  0  0  0  0  0  0  0  0  0
    2.9710    7.5650   53.7750 C   0  0  0  0  0  0  0  0  0  0  0  0
    0.9100    7.6980   52.5380 C   0  0  0  0  0  0  0  0  0  0  0  0
    2.3430    8.1100   54.8950 C   0  0  0  0  0  0  0  0  0  0  0  0
    0.3060    8.2780   53.6320 C   0  0  0  0  0  0  0  0  0  0  0  0
    0.9000    1.7210   47.0220 C   0  0  0  0  0  0  0  0  0  0  0  0
    0.2280   -0.1670   48.1460 C   0  0  0  0  0  0  0  0  0  0  0  0
    2.8760    1.4030   52.6240 C   0  0  0  0  0  0  0  0  0  0  0  0
    2.2420    7.3120   52.6070 C   0  0  0  0  0  0  0  0  0  0  0  0
    0.9740    8.3790   54.8280 C   0  0  0  0  0  0  0  0  0  0  0  0
    0.8820    2.2070   48.3000 C   0  0  0  0  0  0  0  0  0  0  0  0
    2.8080    2.4920   51.6630 C   0  0  0  0  0  0  0  0  0  0  0  0
    2.3240    4.3660   50.8890 C   0  0  0  0  0  0  0  0  0  0  0  0
    1.4680    3.4640   48.7200 C   0  0  0  0  0  0  0  0  0  0  0  0
    0.3630    8.8930   57.2920 C   0  0  0  0  0  0  0  0  0  0  0  0
    2.8830    6.6550   51.4080 C   0  0  0  0  0  0  0  0  0  0  0  0
    2.7180    3.8160   51.9810 N   0  0  0  0  0  0  0  0  0  0  0  0
    2.6470    2.2530   50.4110 N   0  0  0  0  0  0  0  0  0  0  0  0
    2.1880    3.4210   49.9310 N   0  0  0  0  0  0  0  0  0  0  0  0
    2.0400    5.7090   50.6890 N   0  0  0  0  0  0  0  0  0  0  0  0
    1.4440    4.5080   48.0840 O   0  0  0  0  0  0  0  0  0  0  0  0
    0.1360    8.6570   55.8940 O   0  0  0  0  0  0  0  0  0  0  0  0
    0.2620    0.9950   49.3990 S   0  0  0  0  0  0  0  0  0  0  0  0
  1  2  2  0
  1  3  1  0
  2  5  1  0
  3  6  2  0
  4 11  1  0
  4 12  2  0
  5 13  2  0
  6 13  1  0
  7  9  2  0
  7 14  1  0
  8 10  1  0
  8 14  2  0
  9 15  1  0
 10 15  2  0
 11 16  2  0
 12 28  1  0
 13 17  1  0
 14 21  1  0
 15 27  1  0
 16 19  1  0
 16 28  1  0
 17 22  1  0
 17 23  2  0
 18 22  2  0
 18 24  1  0
 18 25  1  0
 19 24  1  0
 19 26  2  0
 20 27  1  0
 21 25  1  0
 23 24  1  0
M  END
>  <washed_aromatic_smiles>  (847) 
COc1ccc(cc1)CNc2nc(nn2C(=O)c3cccs3)c4ccccc4

>  <name>  (847) 
neg251449

$$$$
neg271111
     RDKit          3D

 27 28  0  0  0  0  0  0  0  0999 V2000
    0.3250    1.0750   49.2890 C   0  0  0  0  0  0  0  0  0  0  0  0
    1.2010    3.2750   48.8610 C   0  0  0  0  0  0  0  0  0  0  0  0
    0.1390    0.8790   47.9320 C   0  0  0  0  0  0  0  0  0  0  0  0
    1.0710    3.0690   47.5240 C   0  0  0  0  0  0  0  0  0  0  0  0
    3.1460    6.6190   53.9610 C   0  0  0  0  0  0  0  0  0  0  0  0
    3.4090    5.5770   53.0630 C   0  0  0  0  0  0  0  0  0  0  0  0
    1.7610    6.3190   51.5430 C   0  0  0  0  0  0  0  0  0  0  0  0
    0.9940    2.2200   49.7400 C   0  0  0  0  0  0  0  0  0  0  0  0
    0.5470    1.8710   47.0490 C   0  0  0  0  0  0  0  0  0  0  0  0
    2.1480    7.4730   53.5880 C   0  0  0  0  0  0  0  0  0  0  0  0
    1.9750    7.5230   52.2290 C   0  0  0  0  0  0  0  0  0  0  0  0
    2.4940    5.2370   52.0280 C   0  0  0  0  0  0  0  0  0  0  0  0
    1.8150   -0.4590   51.4670 C   0  0  0  0  0  0  0  0  0  0  0  0
    1.0860    0.6770   45.0350 C   0  0  0  0  0  0  0  0  0  0  0  0
    0.1720    8.6620   53.9420 C   0  0  0  0  0  0  0  0  0  0  0  0
    3.7500    9.3500   52.5680 C   0  0  0  0  0  0  0  0  0  0  0  0
    2.6570   -0.7610   53.8180 C   0  0  0  0  0  0  0  0  0  0  0  0
    1.9680    1.0430   51.6730 C   0  0  0  0  0  0  0  0  0  0  0  0
    1.3910    2.3640   51.0820 N   0  0  0  0  0  0  0  0  0  0  0  0
    1.7600   -1.0280   50.3790 O   0  0  0  0  0  0  0  0  0  0  0  0
    3.3900    3.6800   50.2400 O   0  0  0  0  0  0  0  0  0  0  0  0
    3.3430    2.9070   52.5360 O   0  0  0  0  0  0  0  0  0  0  0  0
    0.3760    1.6960   45.7170 O   0  0  0  0  0  0  0  0  0  0  0  0
    1.4610    8.2750   54.4450 O   0  0  0  0  0  0  0  0  0  0  0  0
    2.9310    8.4130   51.7420 O   0  0  0  0  0  0  0  0  0  0  0  0
    2.1820   -1.2330   52.5200 O   0  0  0  0  0  0  0  0  0  0  0  0
    2.6790    3.5080   51.4390 S   0  0  0  0  0  0  0  0  0  0  0  0
  1  3  2  0
  1  8  1  0
  2  4  1  0
  2  8  2  0
  3  9  1  0
  4  9  2  0
  5  6  2  0
  5 10  1  0
  6 12  1  0
  7 11  1  0
  7 12  2  0
  8 19  1  0
  9 23  1  0
 10 11  2  0
 10 24  1  0
 11 25  1  0
 12 27  1  0
 13 18  1  0
 13 20  2  0
 13 26  1  0
 14 23  1  0
 15 24  1  0
 16 25  1  0
 17 26  1  0
 18 19  1  0
 19 27  1  0
 21 27  2  0
 22 27  2  0
M  END
>  <washed_aromatic_smiles>  (848) 
COc1ccc(cc1)N(CC(=O)OC)S(=O)(=O)c2ccc(c(c2)OC)OC

>  <name>  (848) 
neg271111

$$$$
neg114511
     RDKit          3D

 28 30  0  0  0  0  0  0  0  0999 V2000
    2.2280    2.1110   50.2500 C   0  0  0  0  0  0  0  0  0  0  0  0
    1.4460    3.8780   48.7820 C   0  0  0  0  0  0  0  0  0  0  0  0
    1.6510    1.1630   49.4170 C   0  0  0  0  0  0  0  0  0  0  0  0
    0.9300    2.9160   47.9240 C   0  0  0  0  0  0  0  0  0  0  0  0
    3.5310    7.8410   54.9450 C   0  0  0  0  0  0  0  0  0  0  0  0
    3.9250    9.2000   53.0250 C   0  0  0  0  0  0  0  0  0  0  0  0
    3.4480    8.0050   53.5650 C   0  0  0  0  0  0  0  0  0  0  0  0
    2.1100    3.4840   49.9530 C   0  0  0  0  0  0  0  0  0  0  0  0
    1.0420    1.5670   48.2370 C   0  0  0  0  0  0  0  0  0  0  0  0
    4.0530    8.8260   55.7810 C   0  0  0  0  0  0  0  0  0  0  0  0
    4.4720   10.1870   53.8490 C   0  0  0  0  0  0  0  0  0  0  0  0
    4.5090   10.0340   55.2400 C   0  0  0  0  0  0  0  0  0  0  0  0
    2.9780    4.3770   52.1820 C   0  0  0  0  0  0  0  0  0  0  0  0
    2.9470    5.8070   50.3420 C   0  0  0  0  0  0  0  0  0  0  0  0
    3.6380    5.5490   52.8950 C   0  0  0  0  0  0  0  0  0  0  0  0
    2.6070    6.9940   51.2400 C   0  0  0  0  0  0  0  0  0  0  0  0
    2.8540    6.8350   52.7450 C   0  0  0  0  0  0  0  0  0  0  0  0
    0.7980    0.7460   45.9350 C   0  0  0  0  0  0  0  0  0  0  0  0
    4.9560    9.0740   58.1460 C   0  0  0  0  0  0  0  0  0  0  0  0
    6.1850   11.0400   52.4570 C   0  0  0  0  0  0  0  0  0  0  0  0
    5.1360   12.4520   55.8460 C   0  0  0  0  0  0  0  0  0  0  0  0
    2.6430    4.5390   50.8340 N   0  0  0  0  0  0  0  0  0  0  0  0
    2.9380    3.2890   52.7010 O   0  0  0  0  0  0  0  0  0  0  0  0
    3.5430    5.9130   49.2860 O   0  0  0  0  0  0  0  0  0  0  0  0
    0.5880    0.6030   47.3660 O   0  0  0  0  0  0  0  0  0  0  0  0
    4.0870    8.5120   57.1360 O   0  0  0  0  0  0  0  0  0  0  0  0
    5.0180   11.2910   53.2520 O   0  0  0  0  0  0  0  0  0  0  0  0
    4.9830   11.0340   56.0970 O   0  0  0  0  0  0  0  0  0  0  0  0
  1  3  2  0
  1  8  1  0
  2  4  1  0
  2  8  2  0
  3  9  1  0
  4  9  2  0
  5  7  2  0
  5 10  1  0
  6  7  1  0
  6 11  2  0
  7 17  1  0
  8 22  1  0
  9 25  1  0
 10 12  2  0
 10 26  1  0
 11 12  1  0
 11 27  1  0
 12 28  1  0
 13 15  1  0
 13 22  1  0
 13 23  2  0
 14 16  1  0
 14 22  1  0
 14 24  2  0
 15 17  1  0
 16 17  1  0
 18 25  1  0
 19 26  1  0
 20 27  1  0
 21 28  1  0
M  END
>  <washed_aromatic_smiles>  (849) 
COc1ccc(cc1)N2C(=O)CC(CC2=O)c3cc(c(c(c3)OC)OC)OC

>  <name>  (849) 
neg114511

$$$$
neg253615
     RDKit          3D

 35 38  0  0  0  0  0  0  0  0999 V2000
    3.0240   -0.3160   52.6420 C   0  0  0  0  0  0  0  0  0  0  0  0
    3.2620   -0.1330   51.2870 C   0  0  0  0  0  0  0  0  0  0  0  0
    2.8870    0.7930   53.4630 C   0  0  0  0  0  0  0  0  0  0  0  0
    3.0800    9.8160   56.5700 C   0  0  0  0  0  0  0  0  0  0  0  0
    4.9990    8.4040   56.2030 C   0  0  0  0  0  0  0  0  0  0  0  0
    3.2820    1.1450   50.7430 C   0  0  0  0  0  0  0  0  0  0  0  0
    2.9110    2.0710   52.9190 C   0  0  0  0  0  0  0  0  0  0  0  0
    3.7550   10.4420   57.6070 C   0  0  0  0  0  0  0  0  0  0  0  0
    5.6390    8.9690   57.2970 C   0  0  0  0  0  0  0  0  0  0  0  0
   -0.4260    0.4270   50.0540 C   0  0  0  0  0  0  0  0  0  0  0  0
   -0.0850    0.6340   47.6670 C   0  0  0  0  0  0  0  0  0  0  0  0
    0.4590    1.4670   50.2530 C   0  0  0  0  0  0  0  0  0  0  0  0
    0.7980    1.6760   47.8790 C   0  0  0  0  0  0  0  0  0  0  0  0
    3.7130    8.8190   55.8300 C   0  0  0  0  0  0  0  0  0  0  0  0
    3.0080    2.2690   51.5370 C   0  0  0  0  0  0  0  0  0  0  0  0
    5.0190   10.0070   57.9820 C   0  0  0  0  0  0  0  0  0  0  0  0
   -0.7420    0.0570   48.7520 C   0  0  0  0  0  0  0  0  0  0  0  0
    1.0530    2.1310   49.1680 C   0  0  0  0  0  0  0  0  0  0  0  0
    2.7130    6.2030   51.3040 C   0  0  0  0  0  0  0  0  0  0  0  0
    1.6760    8.2840   54.3370 C   0  0  0  0  0  0  0  0  0  0  0  0
    3.9090    8.6430   53.4640 C   0  0  0  0  0  0  0  0  0  0  0  0
    1.3320    7.2940   53.1770 C   0  0  0  0  0  0  0  0  0  0  0  0
    3.1230    8.5060   52.1410 C   0  0  0  0  0  0  0  0  0  0  0  0
    5.6640   12.0490   59.1840 C   0  0  0  0  0  0  0  0  0  0  0  0
   -3.1150   -0.7670   49.2590 C   0  0  0  0  0  0  0  0  0  0  0  0
    2.3130    4.7880   51.7280 C   0  0  0  0  0  0  0  0  0  0  0  0
    3.1290    8.2640   54.6610 N   0  0  0  0  0  0  0  0  0  0  0  0
    2.3630    7.2530   52.1080 N   0  0  0  0  0  0  0  0  0  0  0  0
    2.7230    3.5730   50.9170 N   0  0  0  0  0  0  0  0  0  0  0  0
    3.4030    6.3640   50.2990 O   0  0  0  0  0  0  0  0  0  0  0  0
    3.1400    3.5120   48.3990 O   0  0  0  0  0  0  0  0  0  0  0  0
    1.2040    4.7110   49.1960 O   0  0  0  0  0  0  0  0  0  0  0  0
    5.6800   10.6080   59.0290 O   0  0  0  0  0  0  0  0  0  0  0  0
   -1.8520   -0.7020   48.5000 O   0  0  0  0  0  0  0  0  0  0  0  0
    2.0770    3.6010   49.3400 S   0  0  0  0  0  0  0  0  0  0  0  0
  1  2  2  0
  1  3  1  0
  2  6  1  0
  3  7  2  0
  4  8  2  0
  4 14  1  0
  5  9  1  0
  5 14  2  0
  6 15  2  0
  7 15  1  0
  8 16  1  0
  9 16  2  0
 10 12  2  0
 10 17  1  0
 11 13  1  0
 11 17  2  0
 12 18  1  0
 13 18  2  0
 14 27  1  0
 15 29  1  0
 16 33  1  0
 17 34  1  0
 18 35  1  0
 19 26  1  0
 19 28  1  0
 19 30  2  0
 20 22  1  0
 20 27  1  0
 21 23  1  0
 21 27  1  0
 22 28  1  0
 23 28  1  0
 24 33  1  0
 25 34  1  0
 26 29  1  0
 29 35  1  0
 31 35  2  0
 32 35  2  0
M  END
>  <washed_aromatic_smiles>  (850) 
COc1ccc(cc1)N2CCN(CC2)C(=O)CN(c3ccccc3)S(=O)(=O)c4ccc(cc4)OC

>  <name>  (850) 
neg253615

$$$$
neg105161
     RDKit          3D

 27 29  0  0  0  0  0  0  0  0999 V2000
    0.7650    7.9710   53.7320 C   0  0  0  0  0  0  0  0  0  0  0  0
    3.0960    8.3850   53.2900 C   0  0  0  0  0  0  0  0  0  0  0  0
    2.9140    1.9040   51.4170 C   0  0  0  0  0  0  0  0  0  0  0  0
    0.9190    8.5210   54.9970 C   0  0  0  0  0  0  0  0  0  0  0  0
    3.2570    8.9310   54.5490 C   0  0  0  0  0  0  0  0  0  0  0  0
    3.1920    1.0580   52.4750 C   0  0  0  0  0  0  0  0  0  0  0  0
    2.1150   -0.7590   51.3050 C   0  0  0  0  0  0  0  0  0  0  0  0
    1.8750    7.8020   52.9060 C   0  0  0  0  0  0  0  0  0  0  0  0
    2.1400    1.4640   50.3410 C   0  0  0  0  0  0  0  0  0  0  0  0
    2.1760    8.9580   55.4230 C   0  0  0  0  0  0  0  0  0  0  0  0
    2.7480   -0.2580   52.4340 C   0  0  0  0  0  0  0  0  0  0  0  0
    1.7620    0.1100   50.2810 C   0  0  0  0  0  0  0  0  0  0  0  0
    2.4300    3.5750   49.0770 C   0  0  0  0  0  0  0  0  0  0  0  0
    0.7660    5.9690   51.5330 C   0  0  0  0  0  0  0  0  0  0  0  0
    3.0280    6.7640   51.0210 C   0  0  0  0  0  0  0  0  0  0  0  0
    1.4210    4.6260   51.1860 C   0  0  0  0  0  0  0  0  0  0  0  0
    3.1030    5.7830   49.8480 C   0  0  0  0  0  0  0  0  0  0  0  0
    3.5810    9.9810   57.2100 C   0  0  0  0  0  0  0  0  0  0  0  0
    2.8810   -0.5520   54.8640 C   0  0  0  0  0  0  0  0  0  0  0  0
   -0.2180    0.0610   48.8310 C   0  0  0  0  0  0  0  0  0  0  0  0
    1.7640    7.0330   51.7030 N   0  0  0  0  0  0  0  0  0  0  0  0
    2.1840    4.6550   49.9400 N   0  0  0  0  0  0  0  0  0  0  0  0
    1.7580    2.3700   49.3110 N   0  0  0  0  0  0  0  0  0  0  0  0
    2.3260    9.4360   56.7190 O   0  0  0  0  0  0  0  0  0  0  0  0
    2.9050   -1.0820   53.5180 O   0  0  0  0  0  0  0  0  0  0  0  0
    1.0700   -0.4340   49.2150 O   0  0  0  0  0  0  0  0  0  0  0  0
    3.4890    3.7050   47.7840 S   0  0  0  0  0  0  0  0  0  0  0  0
  1  4  2  0
  1  8  1  0
  2  5  1  0
  2  8  2  0
  3  6  2  0
  3  9  1  0
  4 10  1  0
  5 10  2  0
  6 11  1  0
  7 11  2  0
  7 12  1  0
  8 21  1  0
  9 12  2  0
  9 23  1  0
 10 24  1  0
 11 25  1  0
 12 26  1  0
 13 22  1  0
 13 23  1  0
 13 27  2  0
 14 16  1  0
 14 21  1  0
 15 17  1  0
 15 21  1  0
 16 22  1  0
 17 22  1  0
 18 24  1  0
 19 25  1  0
 20 26  1  0
M  END
>  <washed_aromatic_smiles>  (851) 
COc1ccc(cc1)N2CCN(CC2)C(=S)Nc3ccc(cc3OC)OC

>  <name>  (851) 
neg105161

$$$$
neg25290
     RDKit          3D

 28 30  0  0  0  0  0  0  0  0999 V2000
    0.6810    0.4360   47.0830 C   0  0  0  0  0  0  0  0  0  0  0  0
    0.9160   -0.4390   48.1390 C   0  0  0  0  0  0  0  0  0  0  0  0
    0.6210    1.7990   47.3150 C   0  0  0  0  0  0  0  0  0  0  0  0
    1.1230    0.0520   49.4200 C   0  0  0  0  0  0  0  0  0  0  0  0
    0.8740    2.2960   48.5830 C   0  0  0  0  0  0  0  0  0  0  0  0
    4.6560    9.9490   57.6120 C   0  0  0  0  0  0  0  0  0  0  0  0
    4.7790   11.7300   55.9650 C   0  0  0  0  0  0  0  0  0  0  0  0
    5.2440   10.7860   58.5500 C   0  0  0  0  0  0  0  0  0  0  0  0
    5.3600   12.5680   56.9100 C   0  0  0  0  0  0  0  0  0  0  0  0
    1.1340    1.4240   49.6390 C   0  0  0  0  0  0  0  0  0  0  0  0
    4.4040   10.4290   56.3200 C   0  0  0  0  0  0  0  0  0  0  0  0
    5.5810   12.0950   58.2060 C   0  0  0  0  0  0  0  0  0  0  0  0
    2.2950    6.2910   51.6090 C   0  0  0  0  0  0  0  0  0  0  0  0
    2.7020    4.0320   50.6980 C   0  0  0  0  0  0  0  0  0  0  0  0
    2.4940    9.0310   55.8420 C   0  0  0  0  0  0  0  0  0  0  0  0
    4.5080    8.5840   54.7240 C   0  0  0  0  0  0  0  0  0  0  0  0
    1.6600    8.4890   54.6620 C   0  0  0  0  0  0  0  0  0  0  0  0
    3.7240    7.8900   53.5840 C   0  0  0  0  0  0  0  0  0  0  0  0
    6.7180   14.2000   58.9770 C   0  0  0  0  0  0  0  0  0  0  0  0
    1.4380    1.9620   51.0080 C   0  0  0  0  0  0  0  0  0  0  0  0
    1.5830    7.1010   52.6870 C   0  0  0  0  0  0  0  0  0  0  0  0
    3.7300    9.6450   55.3660 N   0  0  0  0  0  0  0  0  0  0  0  0
    2.3610    7.4220   53.9250 N   0  0  0  0  0  0  0  0  0  0  0  0
    2.1640    4.9130   51.6380 N   0  0  0  0  0  0  0  0  0  0  0  0
    2.6830    2.7100   51.0490 N   0  0  0  0  0  0  0  0  0  0  0  0
    2.9630    6.8220   50.7490 O   0  0  0  0  0  0  0  0  0  0  0  0
    3.2000    4.3860   49.6320 O   0  0  0  0  0  0  0  0  0  0  0  0
    6.1590   12.8820   59.1940 O   0  0  0  0  0  0  0  0  0  0  0  0
  1  2  2  0
  1  3  1  0
  2  4  1  0
  3  5  2  0
  4 10  2  0
  5 10  1  0
  6  8  2  0
  6 11  1  0
  7  9  1  0
  7 11  2  0
  8 12  1  0
  9 12  2  0
 10 20  1  0
 11 22  1  0
 12 28  1  0
 13 21  1  0
 13 24  1  0
 13 26  2  0
 14 24  1  0
 14 25  1  0
 14 27  2  0
 15 17  1  0
 15 22  1  0
 16 18  1  0
 16 22  1  0
 17 23  1  0
 18 23  1  0
 19 28  1  0
 20 25  1  0
 21 23  1  0
M  END
>  <washed_aromatic_smiles>  (852) 
COc1ccc(cc1)N2CCN(CC2)CC(=O)NC(=O)NCc3ccccc3

>  <name>  (852) 
neg25290

$$$$
neg93092
     RDKit          3D

 28 31  0  0  0  0  0  0  0  0999 V2000
    5.8980   13.1140   58.8890 C   0  0  0  0  0  0  0  0  0  0  0  0
    5.6430   11.7550   59.1280 C   0  0  0  0  0  0  0  0  0  0  0  0
    5.7120   13.6310   57.6340 C   0  0  0  0  0  0  0  0  0  0  0  0
    5.2520   10.9200   58.1200 C   0  0  0  0  0  0  0  0  0  0  0  0
    5.2020   13.2650   55.2240 C   0  0  0  0  0  0  0  0  0  0  0  0
    4.9990   12.3910   54.1890 C   0  0  0  0  0  0  0  0  0  0  0  0
    3.3920    2.0050   51.4860 C   0  0  0  0  0  0  0  0  0  0  0  0
    1.6860    2.3980   49.8090 C   0  0  0  0  0  0  0  0  0  0  0  0
    3.2950    0.6700   51.2910 C   0  0  0  0  0  0  0  0  0  0  0  0
    1.4880    1.0230   49.7200 C   0  0  0  0  0  0  0  0  0  0  0  0
    4.9200   10.5350   55.7350 C   0  0  0  0  0  0  0  0  0  0  0  0
    5.3470   12.7900   56.5530 C   0  0  0  0  0  0  0  0  0  0  0  0
    5.1530   11.4130   56.8040 C   0  0  0  0  0  0  0  0  0  0  0  0
    4.8750   11.0000   54.4380 C   0  0  0  0  0  0  0  0  0  0  0  0
    2.6120    2.9000   50.7410 C   0  0  0  0  0  0  0  0  0  0  0  0
    2.2750    0.1780   50.5020 C   0  0  0  0  0  0  0  0  0  0  0  0
    4.7050   10.0700   53.3490 C   0  0  0  0  0  0  0  0  0  0  0  0
    2.8690    4.5930   52.3750 C   0  0  0  0  0  0  0  0  0  0  0  0
    1.8770    5.2420   50.3920 C   0  0  0  0  0  0  0  0  0  0  0  0
    3.4800    5.9240   52.7270 C   0  0  0  0  0  0  0  0  0  0  0  0
    2.0590    6.6820   50.9300 C   0  0  0  0  0  0  0  0  0  0  0  0
    2.2430   -1.6730   51.9070 C   0  0  0  0  0  0  0  0  0  0  0  0
    3.9160    8.7960   53.5660 C   0  0  0  0  0  0  0  0  0  0  0  0
    3.0930    8.4000   52.3440 C   0  0  0  0  0  0  0  0  0  0  0  0
    2.8090    4.2820   50.9670 N   0  0  0  0  0  0  0  0  0  0  0  0
    2.5620    6.9960   52.2970 N   0  0  0  0  0  0  0  0  0  0  0  0
    5.2540   10.2690   52.2920 O   0  0  0  0  0  0  0  0  0  0  0  0
    2.0460   -1.1470   50.5700 O   0  0  0  0  0  0  0  0  0  0  0  0
  1  2  2  0
  1  3  1  0
  2  4  1  0
  3 12  2  0
  4 13  2  0
  5  6  2  0
  5 12  1  0
  6 14  1  0
  7  9  2  0
  7 15  1  0
  8 10  1  0
  8 15  2  0
  9 16  1  0
 10 16  2  0
 11 13  1  0
 11 14  2  0
 12 13  1  0
 14 17  1  0
 15 25  1  0
 16 28  1  0
 17 23  1  0
 17 27  2  0
 18 20  1  0
 18 25  1  0
 19 21  1  0
 19 25  1  0
 20 26  1  0
 21 26  1  0
 22 28  1  0
 23 24  1  0
 24 26  1  0
M  CHG  1  26   1
M  END
>  <washed_aromatic_smiles>  (853) 
COc1ccc(cc1)N2CCN(CC2)CCC(=O)c3ccc4ccccc4c3

>  <name>  (853) 
neg93092

$$$$
neg257770
     RDKit          3D

 27 29  0  0  0  0  0  0  0  0999 V2000
    1.8660    2.4520   49.5210 C   0  0  0  0  0  0  0  0  0  0  0  0
    3.1240    2.2390   51.5880 C   0  0  0  0  0  0  0  0  0  0  0  0
    4.5760   10.4040   57.4150 C   0  0  0  0  0  0  0  0  0  0  0  0
    5.0970   11.6480   55.3960 C   0  0  0  0  0  0  0  0  0  0  0  0
    1.6500    1.0780   49.5390 C   0  0  0  0  0  0  0  0  0  0  0  0
    2.9600    0.8930   51.5790 C   0  0  0  0  0  0  0  0  0  0  0  0
    5.1180   11.4270   58.1830 C   0  0  0  0  0  0  0  0  0  0  0  0
    5.6370   12.6650   56.1670 C   0  0  0  0  0  0  0  0  0  0  0  0
    2.5880    3.0290   50.5720 C   0  0  0  0  0  0  0  0  0  0  0  0
    4.5560   10.5260   56.0210 C   0  0  0  0  0  0  0  0  0  0  0  0
    2.1960    0.3130   50.5720 C   0  0  0  0  0  0  0  0  0  0  0  0
    5.6510   12.5590   57.5610 C   0  0  0  0  0  0  0  0  0  0  0  0
    2.7000    9.0560   55.3850 C   0  0  0  0  0  0  0  0  0  0  0  0
    2.2080    4.8610   51.9600 C   0  0  0  0  0  0  0  0  0  0  0  0
    2.6520    5.3570   49.6490 C   0  0  0  0  0  0  0  0  0  0  0  0
    2.7790    6.1510   52.4720 C   0  0  0  0  0  0  0  0  0  0  0  0
    3.2300    6.7040   50.1270 C   0  0  0  0  0  0  0  0  0  0  0  0
    2.2670   -1.6660   51.8590 C   0  0  0  0  0  0  0  0  0  0  0  0
    3.1990    8.4680   52.0450 C   0  0  0  0  0  0  0  0  0  0  0  0
    2.2460    9.2510   52.9400 C   0  0  0  0  0  0  0  0  0  0  0  0
    2.7950    4.3950   50.7190 N   0  0  0  0  0  0  0  0  0  0  0  0
    2.6680    7.2000   51.4770 N   0  0  0  0  0  0  0  0  0  0  0  0
    3.9720    9.5500   55.1820 N   0  0  0  0  0  0  0  0  0  0  0  0
    2.0170    8.6510   54.2650 N   0  0  0  0  0  0  0  0  0  0  0  0
    2.1770    9.0090   56.4950 O   0  0  0  0  0  0  0  0  0  0  0  0
    1.9790   -1.0220   50.6110 O   0  0  0  0  0  0  0  0  0  0  0  0
    6.3670   13.8160   58.5170 Cl  0  0  0  0  0  0  0  0  0  0  0  0
  1  5  2  0
  1  9  1  0
  2  6  1  0
  2  9  2  0
  3  7  2  0
  3 10  1  0
  4  8  1  0
  4 10  2  0
  5 11  1  0
  6 11  2  0
  7 12  1  0
  8 12  2  0
  9 21  1  0
 10 23  1  0
 11 26  1  0
 12 27  1  0
 13 23  1  0
 13 24  1  0
 13 25  2  0
 14 16  1  0
 14 21  1  0
 15 17  1  0
 15 21  1  0
 16 22  1  0
 17 22  1  0
 18 26  1  0
 19 20  1  0
 19 22  1  0
 20 24  1  0
M  CHG  1  22   1
M  END
>  <washed_aromatic_smiles>  (854) 
COc1ccc(cc1)N2CCN(CC2)CCNC(=O)Nc3ccc(cc3)Cl

>  <name>  (854) 
neg257770

$$$$
neg108336
     RDKit          3D

 28 30  0  0  0  0  0  0  0  0999 V2000
    3.4570    9.0610   52.9730 C   0  0  0  0  0  0  0  0  0  0  0  0
    3.7710    7.8660   55.0480 C   0  0  0  0  0  0  0  0  0  0  0  0
    2.0610    3.1320   50.6800 C   0  0  0  0  0  0  0  0  0  0  0  0
    1.2930    4.2830   48.6880 C   0  0  0  0  0  0  0  0  0  0  0  0
    4.1050   10.1640   53.5140 C   0  0  0  0  0  0  0  0  0  0  0  0
    4.4090    8.9660   55.5970 C   0  0  0  0  0  0  0  0  0  0  0  0
    1.8530    1.9090   50.0520 C   0  0  0  0  0  0  0  0  0  0  0  0
    1.0780    3.0650   48.0690 C   0  0  0  0  0  0  0  0  0  0  0  0
    3.2520    7.9190   53.7540 C   0  0  0  0  0  0  0  0  0  0  0  0
    1.7510    4.3200   50.0030 C   0  0  0  0  0  0  0  0  0  0  0  0
    4.5370   10.1410   54.8430 C   0  0  0  0  0  0  0  0  0  0  0  0
    1.3490    1.8810   48.7520 C   0  0  0  0  0  0  0  0  0  0  0  0
    5.5880   13.1580   56.8680 C   0  0  0  0  0  0  0  0  0  0  0  0
    6.0890   13.7680   57.9810 C   0  0  0  0  0  0  0  0  0  0  0  0
    5.3290   11.7400   56.6620 C   0  0  0  0  0  0  0  0  0  0  0  0
    6.4540   13.1630   59.2450 C   0  0  0  0  0  0  0  0  0  0  0  0
    1.2550    7.0600   52.5800 C   0  0  0  0  0  0  0  0  0  0  0  0
    3.4080    5.8530   52.5340 C   0  0  0  0  0  0  0  0  0  0  0  0
    0.8280    5.9790   51.5580 C   0  0  0  0  0  0  0  0  0  0  0  0
    3.2220    5.9360   51.0120 C   0  0  0  0  0  0  0  0  0  0  0  0
    0.7190    0.5050   46.7780 C   0  0  0  0  0  0  0  0  0  0  0  0
    2.5460    6.7940   53.2700 N   0  0  0  0  0  0  0  0  0  0  0  0
    1.8780    5.5800   50.5990 N   0  0  0  0  0  0  0  0  0  0  0  0
    5.0520   11.3750   55.3540 N   0  0  0  0  0  0  0  0  0  0  0  0
    5.3570   10.8880   57.5360 O   0  0  0  0  0  0  0  0  0  0  0  0
    5.7090   12.3150   59.7800 O   0  0  0  0  0  0  0  0  0  0  0  0
    7.5190   13.5280   59.8110 O   0  0  0  0  0  0  0  0  0  0  0  0
    1.1300    0.6560   48.1570 O   0  0  0  0  0  0  0  0  0  0  0  0
  1  5  2  0
  1  9  1  0
  2  6  1  0
  2  9  2  0
  3  7  2  0
  3 10  1  0
  4  8  1  0
  4 10  2  0
  5 11  1  0
  6 11  2  0
  7 12  1  0
  8 12  2  0
  9 22  1  0
 10 23  1  0
 11 24  1  0
 12 28  1  0
 13 14  2  0
 13 15  1  0
 14 16  1  0
 15 24  1  0
 15 25  2  0
 16 26  1  0
 16 27  2  0
 17 19  1  0
 17 22  1  0
 18 20  1  0
 18 22  1  0
 19 23  1  0
 20 23  1  0
 21 28  1  0
M  CHG  1  26  -1
M  END
>  <washed_aromatic_smiles>  (855) 
COc1ccc(cc1)N2CCN(CC2)c3ccc(cc3)NC(=O)/C=C\C(=O)O

>  <name>  (855) 
neg108336

$$$$
neg260872
     RDKit          3D

 27 30  0  0  0  0  0  0  0  0999 V2000
    5.2290    8.9210   53.8570 C   0  0  0  0  0  0  0  0  0  0  0  0
    3.4870   10.3550   53.0250 C   0  0  0  0  0  0  0  0  0  0  0  0
    6.0870   10.0090   53.8590 C   0  0  0  0  0  0  0  0  0  0  0  0
    4.3200   11.4520   53.1030 C   0  0  0  0  0  0  0  0  0  0  0  0
    3.8940    9.1130   53.4840 C   0  0  0  0  0  0  0  0  0  0  0  0
    5.5860   11.2810   53.6090 C   0  0  0  0  0  0  0  0  0  0  0  0
    2.5070    4.5520   51.1460 C   0  0  0  0  0  0  0  0  0  0  0  0
    2.4480    2.2880   51.2020 C   0  0  0  0  0  0  0  0  0  0  0  0
    1.8920    3.3820   49.3100 C   0  0  0  0  0  0  0  0  0  0  0  0
    3.1970    6.8550   54.0980 C   0  0  0  0  0  0  0  0  0  0  0  0
    2.0650    8.0300   52.3440 C   0  0  0  0  0  0  0  0  0  0  0  0
    3.6100    5.8080   53.0230 C   0  0  0  0  0  0  0  0  0  0  0  0
    1.5720    6.6350   51.9490 C   0  0  0  0  0  0  0  0  0  0  0  0
    3.0720    1.2270   53.3460 C   0  0  0  0  0  0  0  0  0  0  0  0
    2.6550   -0.1780   51.3670 C   0  0  0  0  0  0  0  0  0  0  0  0
    2.7310    0.0260   54.2360 C   0  0  0  0  0  0  0  0  0  0  0  0
    2.2080   -1.2370   52.3690 C   0  0  0  0  0  0  0  0  0  0  0  0
    5.7110   13.0510   55.1450 C   0  0  0  0  0  0  0  0  0  0  0  0
    2.7200    3.4310   51.8030 N   0  0  0  0  0  0  0  0  0  0  0  0
    2.0860    4.5720   49.8800 N   0  0  0  0  0  0  0  0  0  0  0  0
    2.0520    2.2190   49.9340 N   0  0  0  0  0  0  0  0  0  0  0  0
    2.8930    8.1310   53.5470 N   0  0  0  0  0  0  0  0  0  0  0  0
    2.7040    5.7290   51.8420 N   0  0  0  0  0  0  0  0  0  0  0  0
    2.5440    1.1430   51.9720 N   0  0  0  0  0  0  0  0  0  0  0  0
    2.9620   -1.1970   53.5640 O   0  0  0  0  0  0  0  0  0  0  0  0
    6.2540   12.4020   53.9610 O   0  0  0  0  0  0  0  0  0  0  0  0
    1.3830    3.3190   47.6710 Cl  0  0  0  0  0  0  0  0  0  0  0  0
  1  3  2  0
  1  5  1  0
  2  4  1  0
  2  5  2  0
  3  6  1  0
  4  6  2  0
  5 22  1  0
  6 26  1  0
  7 19  2  0
  7 20  1  0
  7 23  1  0
  8 19  1  0
  8 21  2  0
  8 24  1  0
  9 20  2  0
  9 21  1  0
  9 27  1  0
 10 12  1  0
 10 22  1  0
 11 13  1  0
 11 22  1  0
 12 23  1  0
 13 23  1  0
 14 16  1  0
 14 24  1  0
 15 17  1  0
 15 24  1  0
 16 25  1  0
 17 25  1  0
 18 26  1  0
M  END
>  <washed_aromatic_smiles>  (856) 
COc1ccc(cc1)N2CCN(CC2)c3nc(nc(n3)Cl)N4CCOCC4

>  <name>  (856) 
neg260872

$$$$
neg69914
     RDKit          3D

 25 27  0  0  0  0  0  0  0  0999 V2000
    1.3610    0.2540   50.1770 C   0  0  0  0  0  0  0  0  0  0  0  0
    1.9140    1.4710   50.5520 C   0  0  0  0  0  0  0  0  0  0  0  0
    0.7780    0.1130   48.9230 C   0  0  0  0  0  0  0  0  0  0  0  0
    1.3030    2.4090   48.4150 C   0  0  0  0  0  0  0  0  0  0  0  0
    1.8770    2.5710   49.6770 C   0  0  0  0  0  0  0  0  0  0  0  0
    0.7560    1.1910   48.0400 C   0  0  0  0  0  0  0  0  0  0  0  0
    2.8630    5.3300   51.9990 C   0  0  0  0  0  0  0  0  0  0  0  0
    3.2110    7.5000   52.7790 C   0  0  0  0  0  0  0  0  0  0  0  0
    2.3920    3.8790   50.0570 C   0  0  0  0  0  0  0  0  0  0  0  0
    4.2910    9.3920   57.8920 C   0  0  0  0  0  0  0  0  0  0  0  0
    5.0640   10.6370   57.4920 C   0  0  0  0  0  0  0  0  0  0  0  0
    4.1470    8.3530   56.7840 C   0  0  0  0  0  0  0  0  0  0  0  0
    4.4450   11.3740   56.3060 C   0  0  0  0  0  0  0  0  0  0  0  0
    3.1380    8.8010   55.7180 C   0  0  0  0  0  0  0  0  0  0  0  0
    4.6580   10.6590   54.9600 C   0  0  0  0  0  0  0  0  0  0  0  0
    0.1290    1.0420   46.6850 C   0  0  0  0  0  0  0  0  0  0  0  0
    3.6770    5.3580   52.9960 N   0  0  0  0  0  0  0  0  0  0  0  0
    3.8510    6.6200   53.4580 N   0  0  0  0  0  0  0  0  0  0  0  0
    3.7860    9.5070   54.6270 N   0  0  0  0  0  0  0  0  0  0  0  0
    2.4870    4.1270   51.4010 N   0  0  0  0  0  0  0  0  0  0  0  0
    2.7330    4.7410   49.2540 O   0  0  0  0  0  0  0  0  0  0  0  0
    4.4760    9.7190   52.2580 O   0  0  0  0  0  0  0  0  0  0  0  0
    2.1130    9.8140   52.7480 O   0  0  0  0  0  0  0  0  0  0  0  0
    2.2370    6.8340   51.5420 S   0  0  0  0  0  0  0  0  0  0  0  0
    3.3820    9.2560   53.0340 S   0  0  0  0  0  0  0  0  0  0  0  0
  1  2  2  0
  1  3  1  0
  2  5  1  0
  3  6  2  0
  4  5  2  0
  4  6  1  0
  5  9  1  0
  6 16  1  0
  7 17  2  0
  7 20  1  0
  7 24  1  0
  8 18  2  0
  8 24  1  0
  8 25  1  0
  9 20  1  0
  9 21  2  0
 10 11  1  0
 10 12  1  0
 11 13  1  0
 12 14  1  0
 13 15  1  0
 14 19  1  0
 15 19  1  0
 17 18  1  0
 19 25  1  0
 22 25  2  0
 23 25  2  0
M  END
>  <washed_aromatic_smiles>  (857) 
Cc1cccc(c1)C(=O)Nc2nnc(s2)S(=O)(=O)N3CCCCCC3

>  <name>  (857) 
neg69914

$$$$
neg40525
     RDKit          3D

 30 33  0  0  0  0  0  0  0  0999 V2000
    5.7040   12.5250   58.7560 C   0  0  0  0  0  0  0  0  0  0  0  0
    5.6370   13.2320   57.5610 C   0  0  0  0  0  0  0  0  0  0  0  0
   -0.0070    0.6800   47.6900 C   0  0  0  0  0  0  0  0  0  0  0  0
    5.4840   11.1530   58.7620 C   0  0  0  0  0  0  0  0  0  0  0  0
    5.3540   12.5660   56.3730 C   0  0  0  0  0  0  0  0  0  0  0  0
    0.4910   -0.0880   48.7410 C   0  0  0  0  0  0  0  0  0  0  0  0
    0.3580    2.0070   47.5470 C   0  0  0  0  0  0  0  0  0  0  0  0
    1.7200    1.8130   49.5480 C   0  0  0  0  0  0  0  0  0  0  0  0
    5.2090   10.4840   57.5760 C   0  0  0  0  0  0  0  0  0  0  0  0
    5.1410   11.1880   56.3780 C   0  0  0  0  0  0  0  0  0  0  0  0
    1.3590    0.4770   49.6760 C   0  0  0  0  0  0  0  0  0  0  0  0
    1.2070    2.5670   48.4890 C   0  0  0  0  0  0  0  0  0  0  0  0
    3.3100    7.0270   53.4140 C   0  0  0  0  0  0  0  0  0  0  0  0
    0.8480    7.1660   52.1540 C   0  0  0  0  0  0  0  0  0  0  0  0
    1.7480    6.2300   51.7630 C   0  0  0  0  0  0  0  0  0  0  0  0
    2.4550    8.0340   53.6860 C   0  0  0  0  0  0  0  0  0  0  0  0
    2.8940    5.9740   52.5660 C   0  0  0  0  0  0  0  0  0  0  0  0
    2.7430    4.4040   48.6440 C   0  0  0  0  0  0  0  0  0  0  0  0
    4.9970    8.9920   57.5420 C   0  0  0  0  0  0  0  0  0  0  0  0
    4.8900   10.4350   55.0860 C   0  0  0  0  0  0  0  0  0  0  0  0
    3.8630    8.6710   56.5680 C   0  0  0  0  0  0  0  0  0  0  0  0
    1.8960   -0.3430   50.8280 C   0  0  0  0  0  0  0  0  0  0  0  0
    2.8290    9.2570   54.4520 C   0  0  0  0  0  0  0  0  0  0  0  0
    2.8510    5.4780   49.6900 C   0  0  0  0  0  0  0  0  0  0  0  0
    4.0990    9.1700   55.1930 N   0  0  0  0  0  0  0  0  0  0  0  0
    1.4860    3.9370   48.4250 N   0  0  0  0  0  0  0  0  0  0  0  0
    3.4140    4.8780   52.6090 O   0  0  0  0  0  0  0  0  0  0  0  0
    3.6960    3.8800   48.0990 O   0  0  0  0  0  0  0  0  0  0  0  0
    1.1920    8.0400   53.1520 O   0  0  0  0  0  0  0  0  0  0  0  0
    1.6360    5.5420   50.5730 O   0  0  0  0  0  0  0  0  0  0  0  0
  1  2  2  0
  1  4  1  0
  2  5  1  0
  3  6  2  0
  3  7  1  0
  4  9  2  0
  5 10  2  0
  6 11  1  0
  7 12  2  0
  8 11  2  0
  8 12  1  0
  9 10  1  0
  9 19  1  0
 10 20  1  0
 11 22  1  0
 12 26  1  0
 13 16  2  0
 13 17  1  0
 14 15  2  0
 14 29  1  0
 15 17  1  0
 15 30  1  0
 16 23  1  0
 16 29  1  0
 17 27  2  0
 18 24  1  0
 18 26  1  0
 18 28  2  0
 19 21  1  0
 20 25  1  0
 21 25  1  0
 23 25  1  0
 24 30  1  0
M  END
>  <washed_aromatic_smiles>  (858) 
Cc1cccc(c1)NC(=O)COc2coc(cc2=O)CN3CCc4ccccc4C3

>  <name>  (858) 
neg40525

$$$$
neg300859
     RDKit          3D

 27 29  0  0  0  0  0  0  0  0999 V2000
    1.0260    8.2870   54.3300 C   0  0  0  0  0  0  0  0  0  0  0  0
    1.3470    3.7160   49.2170 C   0  0  0  0  0  0  0  0  0  0  0  0
    2.1670    8.7180   55.0040 C   0  0  0  0  0  0  0  0  0  0  0  0
    1.1210    7.3450   53.3140 C   0  0  0  0  0  0  0  0  0  0  0  0
    1.2150    2.3970   48.8200 C   0  0  0  0  0  0  0  0  0  0  0  0
    2.6620    3.0070   51.0980 C   0  0  0  0  0  0  0  0  0  0  0  0
    3.5150    7.2660   53.6480 C   0  0  0  0  0  0  0  0  0  0  0  0
    1.9390    4.0140   50.4450 C   0  0  0  0  0  0  0  0  0  0  0  0
    3.4180    8.2150   54.6590 C   0  0  0  0  0  0  0  0  0  0  0  0
    2.3780    6.8300   52.9710 C   0  0  0  0  0  0  0  0  0  0  0  0
    1.7640    1.3830   49.6130 C   0  0  0  0  0  0  0  0  0  0  0  0
    2.6480    1.6810   50.6590 C   0  0  0  0  0  0  0  0  0  0  0  0
    1.6900    5.3140   51.0650 C   0  0  0  0  0  0  0  0  0  0  0  0
    3.2950    1.0830   53.8790 C   0  0  0  0  0  0  0  0  0  0  0  0
    2.4010   -1.0150   53.0340 C   0  0  0  0  0  0  0  0  0  0  0  0
    2.0880    0.9890   54.7280 C   0  0  0  0  0  0  0  0  0  0  0  0
    0.9980   -0.4620   53.1970 C   0  0  0  0  0  0  0  0  0  0  0  0
    4.6580    8.6810   55.3910 C   0  0  0  0  0  0  0  0  0  0  0  0
    0.3700   -0.3250   48.5000 C   0  0  0  0  0  0  0  0  0  0  0  0
    3.3180    0.0670   52.8390 N   0  0  0  0  0  0  0  0  0  0  0  0
    2.5910    5.8120   51.9910 N   0  0  0  0  0  0  0  0  0  0  0  0
    0.6710    5.9430   50.8300 O   0  0  0  0  0  0  0  0  0  0  0  0
    3.7740   -0.7360   50.5680 O   0  0  0  0  0  0  0  0  0  0  0  0
    5.0910    1.0350   51.4680 O   0  0  0  0  0  0  0  0  0  0  0  0
    0.9710    0.7740   53.8920 O   0  0  0  0  0  0  0  0  0  0  0  0
    1.3970    0.0810   49.4140 O   0  0  0  0  0  0  0  0  0  0  0  0
    3.8180    0.4430   51.3410 S   0  0  0  0  0  0  0  0  0  0  0  0
  1  3  2  0
  1  4  1  0
  2  5  2  0
  2  8  1  0
  3  9  1  0
  4 10  2  0
  5 11  1  0
  6  8  2  0
  6 12  1  0
  7  9  2  0
  7 10  1  0
  8 13  1  0
  9 18  1  0
 10 21  1  0
 11 12  2  0
 11 26  1  0
 12 27  1  0
 13 21  1  0
 13 22  2  0
 14 16  1  0
 14 20  1  0
 15 17  1  0
 15 20  1  0
 16 25  1  0
 17 25  1  0
 19 26  1  0
 20 27  1  0
 23 27  2  0
 24 27  2  0
M  END
>  <washed_aromatic_smiles>  (859) 
Cc1cccc(c1)NC(=O)c2ccc(c(c2)S(=O)(=O)N3CCOCC3)OC

>  <name>  (859) 
neg300859

$$$$
neg261972
     RDKit          3D

 26 29  0  0  0  0  0  0  0  0999 V2000
    3.2320    8.8560   52.9520 C   0  0  0  0  0  0  0  0  0  0  0  0
    2.4050    8.8910   54.0630 C   0  0  0  0  0  0  0  0  0  0  0  0
    2.9780    7.9360   51.9510 C   0  0  0  0  0  0  0  0  0  0  0  0
    1.1210    7.0370   53.1930 C   0  0  0  0  0  0  0  0  0  0  0  0
    1.2970    8.0500   54.1360 C   0  0  0  0  0  0  0  0  0  0  0  0
    2.0020    6.9680   52.1180 C   0  0  0  0  0  0  0  0  0  0  0  0
    2.7060    2.6010   51.7940 C   0  0  0  0  0  0  0  0  0  0  0  0
    1.5690    2.8400   49.8540 C   0  0  0  0  0  0  0  0  0  0  0  0
    2.0710    4.6750   51.0370 C   0  0  0  0  0  0  0  0  0  0  0  0
    3.0280   -0.6930   54.6640 C   0  0  0  0  0  0  0  0  0  0  0  0
    0.8070    0.2750   46.7770 C   0  0  0  0  0  0  0  0  0  0  0  0
    2.6500   -0.8300   53.1770 C   0  0  0  0  0  0  0  0  0  0  0  0
    3.2130    0.7510   55.1020 C   0  0  0  0  0  0  0  0  0  0  0  0
   -0.1000    0.0260   47.9760 C   0  0  0  0  0  0  0  0  0  0  0  0
    0.6790    1.7350   46.4210 C   0  0  0  0  0  0  0  0  0  0  0  0
    3.3190    0.2100   52.2580 C   0  0  0  0  0  0  0  0  0  0  0  0
    2.6480    1.7140   54.0750 C   0  0  0  0  0  0  0  0  0  0  0  0
    0.4060    0.8180   49.1630 C   0  0  0  0  0  0  0  0  0  0  0  0
    1.1580    2.6830   47.5160 C   0  0  0  0  0  0  0  0  0  0  0  0
    0.2540    8.3740   55.1660 C   0  0  0  0  0  0  0  0  0  0  0  0
    2.1690    2.0730   50.7240 N   0  0  0  0  0  0  0  0  0  0  0  0
    2.6900    3.9470   52.0000 N   0  0  0  0  0  0  0  0  0  0  0  0
    1.5450    4.1560   49.9390 N   0  0  0  0  0  0  0  0  0  0  0  0
    3.1800    1.6360   52.7100 N   0  0  0  0  0  0  0  0  0  0  0  0
    0.8750    2.2030   48.8600 N   0  0  0  0  0  0  0  0  0  0  0  0
    1.8670    6.0420   51.0780 N   0  0  0  0  0  0  0  0  0  0  0  0
  1  2  2  0
  1  3  1  0
  2  5  1  0
  3  6  2  0
  4  5  2  0
  4  6  1  0
  5 20  1  0
  6 26  1  0
  7 21  2  0
  7 22  1  0
  7 24  1  0
  8 21  1  0
  8 23  2  0
  8 25  1  0
  9 22  2  0
  9 23  1  0
  9 26  1  0
 10 12  1  0
 10 13  1  0
 11 14  1  0
 11 15  1  0
 12 16  1  0
 13 17  1  0
 14 18  1  0
 15 19  1  0
 16 24  1  0
 17 24  1  0
 18 25  1  0
 19 25  1  0
M  END
>  <washed_aromatic_smiles>  (860) 
Cc1cccc(c1)Nc2nc(nc(n2)N3CCCCC3)N4CCCCC4

>  <name>  (860) 
neg261972

$$$$
neg65836
     RDKit          3D

 26 28  0  0  0  0  0  0  0  0999 V2000
    5.2730   12.8440   54.6790 C   0  0  0  0  0  0  0  0  0  0  0  0
    2.9520    0.4300   52.5210 C   0  0  0  0  0  0  0  0  0  0  0  0
    5.2310   12.5840   56.0480 C   0  0  0  0  0  0  0  0  0  0  0  0
    3.1150    4.7140   48.9810 C   0  0  0  0  0  0  0  0  0  0  0  0
    1.6030    3.9690   50.7230 C   0  0  0  0  0  0  0  0  0  0  0  0
    3.3230    5.8950   49.6810 C   0  0  0  0  0  0  0  0  0  0  0  0
    1.8020    5.1510   51.4190 C   0  0  0  0  0  0  0  0  0  0  0  0
    5.0160   11.8280   53.7650 C   0  0  0  0  0  0  0  0  0  0  0  0
    2.9290    1.3310   51.4600 C   0  0  0  0  0  0  0  0  0  0  0  0
    4.6630   10.2840   55.6040 C   0  0  0  0  0  0  0  0  0  0  0  0
    2.1310   -0.5910   52.1910 C   0  0  0  0  0  0  0  0  0  0  0  0
    4.9320   11.3020   56.5160 C   0  0  0  0  0  0  0  0  0  0  0  0
    2.2460    3.7560   49.5050 C   0  0  0  0  0  0  0  0  0  0  0  0
    2.6620    6.1120   50.8950 C   0  0  0  0  0  0  0  0  0  0  0  0
    4.6970   10.5580   54.2360 C   0  0  0  0  0  0  0  0  0  0  0  0
    2.0650    0.8410   50.5240 C   0  0  0  0  0  0  0  0  0  0  0  0
    1.6280    1.3410   49.2240 C   0  0  0  0  0  0  0  0  0  0  0  0
    3.0050    7.5720   52.8920 C   0  0  0  0  0  0  0  0  0  0  0  0
    4.8790   11.0150   58.0010 C   0  0  0  0  0  0  0  0  0  0  0  0
    3.0420    9.0110   53.3480 C   0  0  0  0  0  0  0  0  0  0  0  0
    1.9720    2.5930   48.7480 N   0  0  0  0  0  0  0  0  0  0  0  0
    2.8080    7.3570   51.5510 N   0  0  0  0  0  0  0  0  0  0  0  0
    0.9630    0.6620   48.4460 O   0  0  0  0  0  0  0  0  0  0  0  0
    3.1730    6.6450   53.6600 O   0  0  0  0  0  0  0  0  0  0  0  0
    1.5850   -0.3580   50.9770 O   0  0  0  0  0  0  0  0  0  0  0  0
    4.3840    9.5760   53.3310 O   0  0  0  0  0  0  0  0  0  0  0  0
  1  3  2  0
  1  8  1  0
  2  9  1  0
  2 11  2  0
  3 12  1  0
  4  6  2  0
  4 13  1  0
  5  7  1  0
  5 13  2  0
  6 14  1  0
  7 14  2  0
  8 15  2  0
  9 16  2  0
 10 12  2  0
 10 15  1  0
 11 25  1  0
 12 19  1  0
 13 21  1  0
 14 22  1  0
 15 26  1  0
 16 17  1  0
 16 25  1  0
 17 21  1  0
 17 23  2  0
 18 20  1  0
 18 22  1  0
 18 24  2  0
 20 26  1  0
M  END
>  <washed_aromatic_smiles>  (861) 
Cc1cccc(c1)OCC(=O)Nc2ccc(cc2)NC(=O)c3ccco3

>  <name>  (861) 
neg65836

$$$$
neg128979
     RDKit          3D

 26 28  0  0  0  0  0  0  0  0999 V2000
   -0.0440    8.6440   55.0150 C   0  0  0  0  0  0  0  0  0  0  0  0
    5.0890   13.5580   55.5460 C   0  0  0  0  0  0  0  0  0  0  0  0
   -0.4180    8.8570   56.3310 C   0  0  0  0  0  0  0  0  0  0  0  0
    5.2860   13.2150   56.8830 C   0  0  0  0  0  0  0  0  0  0  0  0
    3.0700    4.7820   52.4420 C   0  0  0  0  0  0  0  0  0  0  0  0
    1.2780    8.5670   54.7160 C   0  0  0  0  0  0  0  0  0  0  0  0
    4.8990   12.5830   54.5860 C   0  0  0  0  0  0  0  0  0  0  0  0
    3.3290    5.9790   53.0440 C   0  0  0  0  0  0  0  0  0  0  0  0
    1.8050    8.9360   57.0820 C   0  0  0  0  0  0  0  0  0  0  0  0
    5.0990   10.8900   56.3150 C   0  0  0  0  0  0  0  0  0  0  0  0
    2.6070    5.8560   50.3760 C   0  0  0  0  0  0  0  0  0  0  0  0
    0.4220    8.8270   57.3880 C   0  0  0  0  0  0  0  0  0  0  0  0
    5.2620   11.8780   57.2760 C   0  0  0  0  0  0  0  0  0  0  0  0
    2.7000    4.7040   51.0760 C   0  0  0  0  0  0  0  0  0  0  0  0
    2.2080    8.7500   55.7330 C   0  0  0  0  0  0  0  0  0  0  0  0
    4.8930   11.2560   54.9810 C   0  0  0  0  0  0  0  0  0  0  0  0
    3.1970    7.2140   52.3350 C   0  0  0  0  0  0  0  0  0  0  0  0
   -0.5180    8.4880   58.5730 C   0  0  0  0  0  0  0  0  0  0  0  0
    5.3470   11.4920   58.7360 C   0  0  0  0  0  0  0  0  0  0  0  0
    2.4250    3.3620   50.4340 C   0  0  0  0  0  0  0  0  0  0  0  0
    2.7900    7.0800   51.0120 N   0  0  0  0  0  0  0  0  0  0  0  0
    3.5380    8.3980   52.7410 N   0  0  0  0  0  0  0  0  0  0  0  0
    5.6620    8.1180   54.2010 O   0  0  0  0  0  0  0  0  0  0  0  0
    3.5240    8.5980   55.3910 O   0  0  0  0  0  0  0  0  0  0  0  0
    4.6150   10.3470   53.9960 O   0  0  0  0  0  0  0  0  0  0  0  0
    4.3790    8.8290   54.1110 P   0  0  0  0  0  0  0  0  0  0  0  0
  1  3  2  0
  1  6  1  0
  2  4  2  0
  2  7  1  0
  3 12  1  0
  4 13  1  0
  5  8  2  0
  5 14  1  0
  6 15  2  0
  7 16  2  0
  8 17  1  0
  9 12  2  0
  9 15  1  0
 10 13  2  0
 10 16  1  0
 11 14  2  0
 11 21  1  0
 12 18  1  0
 13 19  1  0
 14 20  1  0
 15 24  1  0
 16 25  1  0
 17 21  1  0
 17 22  2  0
 22 26  1  0
 23 26  2  0
 24 26  1  0
 25 26  1  0
M  END
>  <washed_aromatic_smiles>  (862) 
Cc1cccc(c1)OP(=O)(Nc2ccc(cn2)C)Oc3cccc(c3)C

>  <name>  (862) 
neg128979

$$$$
neg223287
     RDKit          3D

 25 27  0  0  0  0  0  0  0  0999 V2000
    0.9960    4.8230   51.2710 C   0  0  0  0  0  0  0  0  0  0  0  0
    5.5760   10.2530   55.9610 C   0  0  0  0  0  0  0  0  0  0  0  0
    4.1250    8.3270   57.5730 C   0  0  0  0  0  0  0  0  0  0  0  0
    1.5820    4.1250   50.2200 C   0  0  0  0  0  0  0  0  0  0  0  0
    5.3240   11.6040   56.0780 C   0  0  0  0  0  0  0  0  0  0  0  0
    4.0100    7.5710   56.4230 C   0  0  0  0  0  0  0  0  0  0  0  0
    1.5040    6.0240   51.7040 C   0  0  0  0  0  0  0  0  0  0  0  0
    5.4020    9.5990   54.7540 C   0  0  0  0  0  0  0  0  0  0  0  0
    3.2080    5.8680   49.9780 C   0  0  0  0  0  0  0  0  0  0  0  0
    4.6040   11.6540   53.7740 C   0  0  0  0  0  0  0  0  0  0  0  0
    3.3830    9.4960   57.6890 C   0  0  0  0  0  0  0  0  0  0  0  0
    2.2970    9.0860   55.7150 C   0  0  0  0  0  0  0  0  0  0  0  0
    2.6720    4.6560   49.5480 C   0  0  0  0  0  0  0  0  0  0  0  0
    4.8810   12.3100   54.9730 C   0  0  0  0  0  0  0  0  0  0  0  0
    3.1520    8.0290   55.4160 C   0  0  0  0  0  0  0  0  0  0  0  0
    2.6170    6.5250   51.0590 C   0  0  0  0  0  0  0  0  0  0  0  0
    4.7820   10.2780   53.7220 C   0  0  0  0  0  0  0  0  0  0  0  0
    3.1890    3.9070   48.3460 C   0  0  0  0  0  0  0  0  0  0  0  0
    4.6510   13.7670   55.1430 C   0  0  0  0  0  0  0  0  0  0  0  0
    2.4540    9.8240   56.8010 N   0  0  0  0  0  0  0  0  0  0  0  0
    3.2050    7.5090   54.0920 N   0  0  0  0  0  0  0  0  0  0  0  0
    1.7520    9.2720   52.8200 O   0  0  0  0  0  0  0  0  0  0  0  0
    3.1220    7.7000   51.4840 O   0  0  0  0  0  0  0  0  0  0  0  0
    4.2490    9.5440   52.7060 O   0  0  0  0  0  0  0  0  0  0  0  0
    3.0330    8.5650   52.7570 P   0  0  0  0  0  0  0  0  0  0  0  0
  1  4  2  0
  1  7  1  0
  2  5  2  0
  2  8  1  0
  3  6  2  0
  3 11  1  0
  4 13  1  0
  5 14  1  0
  6 15  1  0
  7 16  2  0
  8 17  2  0
  9 13  2  0
  9 16  1  0
 10 14  2  0
 10 17  1  0
 11 20  2  0
 12 15  2  0
 12 20  1  0
 13 18  1  0
 14 19  1  0
 15 21  1  0
 16 23  1  0
 17 24  1  0
 21 25  1  0
 22 25  2  0
 23 25  1  0
 24 25  1  0
M  END
>  <washed_aromatic_smiles>  (863) 
Cc1cccc(c1)OP(=O)(Nc2cccnc2)Oc3cccc(c3)C

>  <name>  (863) 
neg223287

$$$$
neg217296
     RDKit          3D

 27 31  0  0  0  0  0  0  0  0999 V2000
    0.4970    0.4990   48.6730 C   0  0  0  0  0  0  0  0  0  0  0  0
    0.3480    0.4510   50.0570 C   0  0  0  0  0  0  0  0  0  0  0  0
    0.9200    8.6670   55.4950 C   0  0  0  0  0  0  0  0  0  0  0  0
    1.1710    1.5610   48.0840 C   0  0  0  0  0  0  0  0  0  0  0  0
    0.7930    1.4980   50.8420 C   0  0  0  0  0  0  0  0  0  0  0  0
    3.4200    5.9500   48.6920 C   0  0  0  0  0  0  0  0  0  0  0  0
    3.4280    7.0710   49.5040 C   0  0  0  0  0  0  0  0  0  0  0  0
    1.8500    9.0920   56.4540 C   0  0  0  0  0  0  0  0  0  0  0  0
    1.3410    7.9590   54.3950 C   0  0  0  0  0  0  0  0  0  0  0  0
    3.6390    8.0870   55.2210 C   0  0  0  0  0  0  0  0  0  0  0  0
    1.7540    2.5570   48.8810 C   0  0  0  0  0  0  0  0  0  0  0  0
    1.4190    2.5910   50.2410 C   0  0  0  0  0  0  0  0  0  0  0  0
    3.0170    4.7140   49.2120 C   0  0  0  0  0  0  0  0  0  0  0  0
    3.1620    6.9630   50.8680 C   0  0  0  0  0  0  0  0  0  0  0  0
    2.7140    4.6460   50.5580 C   0  0  0  0  0  0  0  0  0  0  0  0
    3.2100    8.8120   56.3230 C   0  0  0  0  0  0  0  0  0  0  0  0
    2.6940    7.6820   54.2810 C   0  0  0  0  0  0  0  0  0  0  0  0
    3.0420    5.7050   51.3870 C   0  0  0  0  0  0  0  0  0  0  0  0
    2.6790    3.5810   48.3840 C   0  0  0  0  0  0  0  0  0  0  0  0
    1.6110    3.8550   50.9040 C   0  0  0  0  0  0  0  0  0  0  0  0
    3.1200    7.8820   51.9600 C   0  0  0  0  0  0  0  0  0  0  0  0
    4.2030    9.2850   57.3630 C   0  0  0  0  0  0  0  0  0  0  0  0
    3.1170    5.7640   52.7290 N   0  0  0  0  0  0  0  0  0  0  0  0
    3.0800    7.1380   53.0810 N   0  0  0  0  0  0  0  0  0  0  0  0
    3.2140    3.4910   47.3080 O   0  0  0  0  0  0  0  0  0  0  0  0
    0.7020    4.4700   51.4300 O   0  0  0  0  0  0  0  0  0  0  0  0
    3.2360    9.1040   52.0540 O   0  0  0  0  0  0  0  0  0  0  0  0
  1  2  2  0
  1  4  1  0
  2  5  1  0
  3  8  2  0
  3  9  1  0
  4 11  2  0
  5 12  2  0
  6  7  1  0
  6 13  2  0
  7 14  2  0
  8 16  1  0
  9 17  2  0
 10 16  2  0
 10 17  1  0
 11 12  1  0
 11 19  1  0
 12 20  1  0
 13 15  1  0
 13 19  1  0
 14 18  1  0
 14 21  1  0
 15 18  2  0
 15 20  1  0
 16 22  1  0
 17 24  1  0
 18 23  1  0
 19 25  2  0
 20 26  2  0
 21 24  1  0
 21 27  2  0
 23 24  1  0
M  END
>  <washed_aromatic_smiles>  (864) 
Cc1cccc(c1)n2c(=O)c3ccc4c(c3[nH]2)C(=O)c5ccccc5C4=O

>  <name>  (864) 
neg217296

$$$$
neg165735
     RDKit          3D

 26 28  0  0  0  0  0  0  0  0999 V2000
    2.4680    9.1960   56.9870 C   0  0  0  0  0  0  0  0  0  0  0  0
    3.7770    9.6600   57.0520 C   0  0  0  0  0  0  0  0  0  0  0  0
    1.7760    3.1750   48.5610 C   0  0  0  0  0  0  0  0  0  0  0  0
    1.8710    8.9370   55.7670 C   0  0  0  0  0  0  0  0  0  0  0  0
    1.6950    1.8300   48.9040 C   0  0  0  0  0  0  0  0  0  0  0  0
    2.0670    4.1220   49.5290 C   0  0  0  0  0  0  0  0  0  0  0  0
    4.4780    9.8930   55.8810 C   0  0  0  0  0  0  0  0  0  0  0  0
    2.5650    9.1140   54.5790 C   0  0  0  0  0  0  0  0  0  0  0  0
    1.9930    1.4100   50.2010 C   0  0  0  0  0  0  0  0  0  0  0  0
    2.3490    2.3500   51.1750 C   0  0  0  0  0  0  0  0  0  0  0  0
    2.2590    3.7240   50.8590 C   0  0  0  0  0  0  0  0  0  0  0  0
    3.8620    9.6390   54.6480 C   0  0  0  0  0  0  0  0  0  0  0  0
    1.8960    8.7630   53.3430 C   0  0  0  0  0  0  0  0  0  0  0  0
    5.8440    9.9830   53.2720 C   0  0  0  0  0  0  0  0  0  0  0  0
    3.3900    5.4150   52.3580 C   0  0  0  0  0  0  0  0  0  0  0  0
    0.9850    5.5730   51.7690 C   0  0  0  0  0  0  0  0  0  0  0  0
    3.1950    6.6650   53.2440 C   0  0  0  0  0  0  0  0  0  0  0  0
    1.3310    7.0340   51.7080 C   0  0  0  0  0  0  0  0  0  0  0  0
    1.8970   -0.0710   50.5330 C   0  0  0  0  0  0  0  0  0  0  0  0
    2.8050    1.8530   52.5400 C   0  0  0  0  0  0  0  0  0  0  0  0
    6.3660   10.9460   52.2540 C   0  0  0  0  0  0  0  0  0  0  0  0
    2.1760    4.7130   51.8810 N   0  0  0  0  0  0  0  0  0  0  0  0
    2.0860    7.5050   52.8400 N   0  0  0  0  0  0  0  0  0  0  0  0
    4.4960   10.0160   53.4590 N   0  0  0  0  0  0  0  0  0  0  0  0
    1.1110    9.5110   52.7710 O   0  0  0  0  0  0  0  0  0  0  0  0
    6.5530    9.2340   53.9150 O   0  0  0  0  0  0  0  0  0  0  0  0
  1  2  2  0
  1  4  1  0
  2  7  1  0
  3  5  2  0
  3  6  1  0
  4  8  2  0
  5  9  1  0
  6 11  2  0
  7 12  2  0
  8 12  1  0
  8 13  1  0
  9 10  2  0
  9 19  1  0
 10 11  1  0
 10 20  1  0
 11 22  1  0
 12 24  1  0
 13 23  1  0
 13 25  2  0
 14 21  1  0
 14 24  1  0
 14 26  2  0
 15 17  1  0
 15 22  1  0
 16 18  1  0
 16 22  1  0
 17 23  1  0
 18 23  1  0
M  END
>  <washed_aromatic_smiles>  (865) 
Cc1cccc(c1C)N2CCN(CC2)C(=O)c3ccccc3NC(=O)C

>  <name>  (865) 
neg165735

$$$$
neg277521
     RDKit          3D

 25 27  0  0  0  0  0  0  0  0999 V2000
    0.6160    8.6110   55.4390 C   0  0  0  0  0  0  0  0  0  0  0  0
    1.7810    9.0490   56.0810 C   0  0  0  0  0  0  0  0  0  0  0  0
    0.6330    8.2920   54.0980 C   0  0  0  0  0  0  0  0  0  0  0  0
   -0.3200    0.5150   51.3330 C   0  0  0  0  0  0  0  0  0  0  0  0
   -0.1780    0.7010   48.9340 C   0  0  0  0  0  0  0  0  0  0  0  0
    0.7850    1.3180   51.4560 C   0  0  0  0  0  0  0  0  0  0  0  0
    0.8680    1.5990   49.0670 C   0  0  0  0  0  0  0  0  0  0  0  0
    2.9340    9.3010   55.3470 C   0  0  0  0  0  0  0  0  0  0  0  0
    2.9450    9.0160   53.9810 C   0  0  0  0  0  0  0  0  0  0  0  0
    1.8490    8.3120   53.4250 C   0  0  0  0  0  0  0  0  0  0  0  0
   -0.8830    0.3400   50.0850 C   0  0  0  0  0  0  0  0  0  0  0  0
    1.2880    1.9790   50.3430 C   0  0  0  0  0  0  0  0  0  0  0  0
    3.0410    6.4670   52.8730 C   0  0  0  0  0  0  0  0  0  0  0  0
    0.9010    6.5780   51.8510 C   0  0  0  0  0  0  0  0  0  0  0  0
    3.2510    5.1670   52.1160 C   0  0  0  0  0  0  0  0  0  0  0  0
    1.3220    5.4820   50.8370 C   0  0  0  0  0  0  0  0  0  0  0  0
    4.1360    9.9030   56.0550 C   0  0  0  0  0  0  0  0  0  0  0  0
    4.1270    9.4550   53.1350 C   0  0  0  0  0  0  0  0  0  0  0  0
   -2.9580   -0.6220   49.0020 C   0  0  0  0  0  0  0  0  0  0  0  0
    2.0460    7.3930   52.3600 N   0  0  0  0  0  0  0  0  0  0  0  0
    2.1470    4.4600   51.4660 N   0  0  0  0  0  0  0  0  0  0  0  0
    3.5070    2.3200   51.4080 O   0  0  0  0  0  0  0  0  0  0  0  0
    3.0860    3.5120   49.3180 O   0  0  0  0  0  0  0  0  0  0  0  0
   -2.2030   -0.0670   50.0780 O   0  0  0  0  0  0  0  0  0  0  0  0
    2.6250    3.0910   50.6010 S   0  0  0  0  0  0  0  0  0  0  0  0
  1  2  2  0
  1  3  1  0
  2  8  1  0
  3 10  2  0
  4  6  2  0
  4 11  1  0
  5  7  1  0
  5 11  2  0
  6 12  1  0
  7 12  2  0
  8  9  2  0
  8 17  1  0
  9 10  1  0
  9 18  1  0
 10 20  1  0
 11 24  1  0
 12 25  1  0
 13 15  1  0
 13 20  1  0
 14 16  1  0
 14 20  1  0
 15 21  1  0
 16 21  1  0
 19 24  1  0
 21 25  1  0
 22 25  2  0
 23 25  2  0
M  END
>  <washed_aromatic_smiles>  (866) 
Cc1cccc(c1C)N2CCN(CC2)S(=O)(=O)c3ccc(cc3)OC

>  <name>  (866) 
neg277521

$$$$
neg68274
     RDKit          3D

 26 28  0  0  0  0  0  0  0  0999 V2000
    1.2150   -0.6760   49.8580 C   0  0  0  0  0  0  0  0  0  0  0  0
    0.9910   -0.5460   48.4940 C   0  0  0  0  0  0  0  0  0  0  0  0
    3.3310    8.6690   52.6220 C   0  0  0  0  0  0  0  0  0  0  0  0
    1.7750    8.0840   54.3360 C   0  0  0  0  0  0  0  0  0  0  0  0
    2.8240    7.6830   51.8020 C   0  0  0  0  0  0  0  0  0  0  0  0
    1.2480    7.0960   53.5100 C   0  0  0  0  0  0  0  0  0  0  0  0
    1.3060    0.4450   50.6590 C   0  0  0  0  0  0  0  0  0  0  0  0
    2.9060    8.7900   53.9430 C   0  0  0  0  0  0  0  0  0  0  0  0
    0.9340    0.7120   47.8940 C   0  0  0  0  0  0  0  0  0  0  0  0
    1.1050    1.8550   48.6800 C   0  0  0  0  0  0  0  0  0  0  0  0
    1.8650    6.8140   52.2950 C   0  0  0  0  0  0  0  0  0  0  0  0
    1.2370    1.6940   50.0620 C   0  0  0  0  0  0  0  0  0  0  0  0
    2.4800    4.8880   50.8590 C   0  0  0  0  0  0  0  0  0  0  0  0
    5.8120   10.2070   53.7030 C   0  0  0  0  0  0  0  0  0  0  0  0
    4.7590   11.9270   55.0580 C   0  0  0  0  0  0  0  0  0  0  0  0
    6.2820   11.2620   52.7060 C   0  0  0  0  0  0  0  0  0  0  0  0
    5.2050   13.0020   54.0630 C   0  0  0  0  0  0  0  0  0  0  0  0
    0.7000    0.7900   46.3980 C   0  0  0  0  0  0  0  0  0  0  0  0
    1.2110    3.2350   48.0540 C   0  0  0  0  0  0  0  0  0  0  0  0
    3.6850    9.6110   54.9530 C   0  0  0  0  0  0  0  0  0  0  0  0
    2.5470    3.4010   51.0700 C   0  0  0  0  0  0  0  0  0  0  0  0
    4.5380   10.6540   54.3250 N   0  0  0  0  0  0  0  0  0  0  0  0
    1.5900    5.5740   51.6680 N   0  0  0  0  0  0  0  0  0  0  0  0
    3.2030    5.4340   50.0480 O   0  0  0  0  0  0  0  0  0  0  0  0
    6.3320   12.5640   53.3010 O   0  0  0  0  0  0  0  0  0  0  0  0
    1.2970    2.7700   50.8780 O   0  0  0  0  0  0  0  0  0  0  0  0
  1  2  2  0
  1  7  1  0
  2  9  1  0
  3  5  2  0
  3  8  1  0
  4  6  1  0
  4  8  2  0
  5 11  1  0
  6 11  2  0
  7 12  2  0
  8 20  1  0
  9 10  2  0
  9 18  1  0
 10 12  1  0
 10 19  1  0
 11 23  1  0
 12 26  1  0
 13 21  1  0
 13 23  1  0
 13 24  2  0
 14 16  1  0
 14 22  1  0
 15 17  1  0
 15 22  1  0
 16 25  1  0
 17 25  1  0
 20 22  1  0
 21 26  1  0
M  CHG  1  22   1
M  END
>  <washed_aromatic_smiles>  (867) 
Cc1cccc(c1C)OCC(=O)Nc2ccc(cc2)CN3CCOCC3

>  <name>  (867) 
neg68274

$$$$
neg306387
     RDKit          3D

 29 30  0  0  0  0  0  0  0  0999 V2000
    6.2670   11.7980   54.8730 C   0  0  0  0  0  0  0  0  0  0  0  0
    2.9030    4.0490   48.6150 C   0  0  0  0  0  0  0  0  0  0  0  0
    6.5360   10.6440   54.1010 C   0  0  0  0  0  0  0  0  0  0  0  0
    4.9900   12.2700   54.8740 C   0  0  0  0  0  0  0  0  0  0  0  0
    3.0010    5.2910   49.2370 C   0  0  0  0  0  0  0  0  0  0  0  0
    2.5280    2.9220   49.3370 C   0  0  0  0  0  0  0  0  0  0  0  0
    2.4340    4.2700   51.3560 C   0  0  0  0  0  0  0  0  0  0  0  0
    5.5520    9.7660   53.7940 C   0  0  0  0  0  0  0  0  0  0  0  0
    4.2690   11.7310   53.8500 C   0  0  0  0  0  0  0  0  0  0  0  0
    2.7320    5.4110   50.6040 C   0  0  0  0  0  0  0  0  0  0  0  0
    2.2890    3.0300   50.7110 C   0  0  0  0  0  0  0  0  0  0  0  0
    4.3030   10.3240   53.7150 C   0  0  0  0  0  0  0  0  0  0  0  0
    2.8260    7.2250   52.4390 C   0  0  0  0  0  0  0  0  0  0  0  0
    5.9590    8.3330   53.9600 C   0  0  0  0  0  0  0  0  0  0  0  0
    4.5480   12.6340   52.7060 C   0  0  0  0  0  0  0  0  0  0  0  0
    0.6580    1.2090   50.9690 C   0  0  0  0  0  0  0  0  0  0  0  0
    2.5280    0.1460   53.4510 C   0  0  0  0  0  0  0  0  0  0  0  0
    3.7100    7.9070   56.0950 C   0  0  0  0  0  0  0  0  0  0  0  0
    2.6990    8.7440   52.6170 C   0  0  0  0  0  0  0  0  0  0  0  0
    2.7130    6.7510   51.1370 N   0  0  0  0  0  0  0  0  0  0  0  0
    1.8770    1.8840   51.4480 N   0  0  0  0  0  0  0  0  0  0  0  0
    3.2090    9.4480   53.8300 N   0  0  0  0  0  0  0  0  0  0  0  0
    3.0270    6.4610   53.3560 O   0  0  0  0  0  0  0  0  0  0  0  0
    4.2990    1.4470   52.0640 O   0  0  0  0  0  0  0  0  0  0  0  0
    3.0760   -0.3050   50.9410 O   0  0  0  0  0  0  0  0  0  0  0  0
    1.3200    8.5720   55.2400 O   0  0  0  0  0  0  0  0  0  0  0  0
    2.7490   10.2530   56.2290 O   0  0  0  0  0  0  0  0  0  0  0  0
    3.0690    0.7740   51.8690 S   0  0  0  0  0  0  0  0  0  0  0  0
    2.6220    9.1170   55.3830 S   0  0  0  0  0  0  0  0  0  0  0  0
  1  3  2  0
  1  4  1  0
  2  5  2  0
  2  6  1  0
  3  8  1  0
  4  9  2  0
  5 10  1  0
  6 11  2  0
  7 10  2  0
  7 11  1  0
  8 12  2  0
  8 14  1  0
  9 12  1  0
  9 15  1  0
 10 20  1  0
 11 21  1  0
 12 22  1  0
 13 19  1  0
 13 20  1  0
 13 23  2  0
 16 21  1  0
 17 28  1  0
 18 29  1  0
 19 22  1  0
 21 28  1  0
 22 29  1  0
 24 28  2  0
 25 28  2  0
 26 29  2  0
 27 29  2  0
M  END
>  <washed_aromatic_smiles>  (868) 
Cc1cccc(c1N(CC(=O)Nc2cccc(c2)N(C)S(=O)(=O)C)S(=O)(=O)C)C

>  <name>  (868) 
neg306387

$$$$
neg278879
     RDKit          3D

 27 29  0  0  0  0  0  0  0  0999 V2000
    2.1610   -0.4590   50.3350 C   0  0  0  0  0  0  0  0  0  0  0  0
    0.9410    0.0940   50.0060 C   0  0  0  0  0  0  0  0  0  0  0  0
    3.0670    0.3030   51.0510 C   0  0  0  0  0  0  0  0  0  0  0  0
    3.8100    8.8680   56.6190 C   0  0  0  0  0  0  0  0  0  0  0  0
    2.5220    8.6580   56.1840 C   0  0  0  0  0  0  0  0  0  0  0  0
    4.6300    8.2500   54.4090 C   0  0  0  0  0  0  0  0  0  0  0  0
    0.6360    1.3670   50.4660 C   0  0  0  0  0  0  0  0  0  0  0  0
    2.7830    1.6340   51.3420 C   0  0  0  0  0  0  0  0  0  0  0  0
    1.6660    2.2780   50.8000 C   0  0  0  0  0  0  0  0  0  0  0  0
    4.8600    8.5630   55.7580 C   0  0  0  0  0  0  0  0  0  0  0  0
    2.3170    8.0980   54.9190 C   0  0  0  0  0  0  0  0  0  0  0  0
    3.3160    8.0530   53.9670 C   0  0  0  0  0  0  0  0  0  0  0  0
    2.7610    4.5940   49.9990 C   0  0  0  0  0  0  0  0  0  0  0  0
    1.0350    4.7340   51.5750 C   0  0  0  0  0  0  0  0  0  0  0  0
    3.3450    5.8430   50.8070 C   0  0  0  0  0  0  0  0  0  0  0  0
    1.0170    6.2300   51.4140 C   0  0  0  0  0  0  0  0  0  0  0  0
   -0.6260    1.2740   51.2700 C   0  0  0  0  0  0  0  0  0  0  0  0
    3.4710    2.1820   52.5220 C   0  0  0  0  0  0  0  0  0  0  0  0
    6.3930    8.2340   57.6510 C   0  0  0  0  0  0  0  0  0  0  0  0
    0.0310    8.4120   54.6450 C   0  0  0  0  0  0  0  0  0  0  0  0
    1.6140    3.8120   50.5790 N   0  0  0  0  0  0  0  0  0  0  0  0
    2.3760    6.7360   51.5190 N   0  0  0  0  0  0  0  0  0  0  0  0
    1.4980    8.9670   52.3990 O   0  0  0  0  0  0  0  0  0  0  0  0
    3.7200    8.9170   51.5840 O   0  0  0  0  0  0  0  0  0  0  0  0
    6.1320    8.5740   56.2550 O   0  0  0  0  0  0  0  0  0  0  0  0
    1.1170    7.5560   54.5520 O   0  0  0  0  0  0  0  0  0  0  0  0
    2.7120    8.2380   52.2810 S   0  0  0  0  0  0  0  0  0  0  0  0
  1  2  2  0
  1  3  1  0
  2  7  1  0
  3  8  2  0
  4  5  2  0
  4 10  1  0
  5 11  1  0
  6 10  2  0
  6 12  1  0
  7  9  2  0
  7 17  1  0
  8  9  1  0
  8 18  1  0
  9 21  1  0
 10 25  1  0
 11 12  2  0
 11 26  1  0
 12 27  1  0
 13 15  1  0
 13 21  1  0
 14 16  1  0
 14 21  1  0
 15 22  1  0
 16 22  1  0
 19 25  1  0
 20 26  1  0
 22 27  1  0
 23 27  2  0
 24 27  2  0
M  END
>  <washed_aromatic_smiles>  (869) 
Cc1cccc(c1N2CCN(CC2)S(=O)(=O)c3cc(ccc3OC)OC)C

>  <name>  (869) 
neg278879

$$$$
neg138287
     RDKit          3D

 26 27  0  0  0  0  0  0  0  0999 V2000
    5.6080   12.4710   57.2000 C   0  0  0  0  0  0  0  0  0  0  0  0
    5.1670   11.2770   57.7530 C   0  0  0  0  0  0  0  0  0  0  0  0
    5.5180   12.6730   55.8290 C   0  0  0  0  0  0  0  0  0  0  0  0
    1.4660    3.5520   48.9380 C   0  0  0  0  0  0  0  0  0  0  0  0
    1.1290    2.4190   48.2040 C   0  0  0  0  0  0  0  0  0  0  0  0
    2.0130    2.1480   50.8620 C   0  0  0  0  0  0  0  0  0  0  0  0
    4.6040   10.2950   56.9470 C   0  0  0  0  0  0  0  0  0  0  0  0
    4.9470   11.7230   54.9880 C   0  0  0  0  0  0  0  0  0  0  0  0
    1.8680    3.4050   50.2740 C   0  0  0  0  0  0  0  0  0  0  0  0
    4.4290   10.5400   55.5730 C   0  0  0  0  0  0  0  0  0  0  0  0
    1.2300    1.1700   48.8070 C   0  0  0  0  0  0  0  0  0  0  0  0
    1.6980    1.0130   50.1170 C   0  0  0  0  0  0  0  0  0  0  0  0
    2.8080    5.6350   50.7180 C   0  0  0  0  0  0  0  0  0  0  0  0
    3.3960    9.1940   53.6200 C   0  0  0  0  0  0  0  0  0  0  0  0
    4.1630    8.9930   57.5860 C   0  0  0  0  0  0  0  0  0  0  0  0
    4.9290   12.0900   53.5120 C   0  0  0  0  0  0  0  0  0  0  0  0
    3.5590    6.3720   53.5270 C   0  0  0  0  0  0  0  0  0  0  0  0
    2.4860    6.9290   51.4380 C   0  0  0  0  0  0  0  0  0  0  0  0
    2.1560    8.3320   53.3800 C   0  0  0  0  0  0  0  0  0  0  0  0
    2.0520    4.5520   51.0730 N   0  0  0  0  0  0  0  0  0  0  0  0
    3.5810    9.5770   54.9260 N   0  0  0  0  0  0  0  0  0  0  0  0
    2.3850    6.9420   52.9030 N   0  0  0  0  0  0  0  0  0  0  0  0
    3.6270    5.5520   49.8180 O   0  0  0  0  0  0  0  0  0  0  0  0
    4.1820    9.4940   52.7510 O   0  0  0  0  0  0  0  0  0  0  0  0
    0.8680    0.0850   48.0970 F   0  0  0  0  0  0  0  0  0  0  0  0
    1.9070   -0.5530   50.8210 Cl  0  0  0  0  0  0  0  0  0  0  0  0
  1  2  2  0
  1  3  1  0
  2  7  1  0
  3  8  2  0
  4  5  2  0
  4  9  1  0
  5 11  1  0
  6  9  2  0
  6 12  1  0
  7 10  2  0
  7 15  1  0
  8 10  1  0
  8 16  1  0
  9 20  1  0
 10 21  1  0
 11 12  2  0
 11 25  1  0
 12 26  1  0
 13 18  1  0
 13 20  1  0
 13 23  2  0
 14 19  1  0
 14 21  1  0
 14 24  2  0
 17 22  1  0
 18 22  1  0
 19 22  1  0
M  END
>  <washed_aromatic_smiles>  (870) 
Cc1cccc(c1NC(=O)CN(C)CC(=O)Nc2ccc(c(c2)Cl)F)C

>  <name>  (870) 
neg138287

$$$$
neg243029
     RDKit          3D

 25 26  0  0  0  0  0  0  0  0999 V2000
    5.1570   12.6690   56.6020 C   0  0  0  0  0  0  0  0  0  0  0  0
    5.4430   12.2020   57.8800 C   0  0  0  0  0  0  0  0  0  0  0  0
    1.3060    0.7870   49.0860 C   0  0  0  0  0  0  0  0  0  0  0  0
    1.8320    0.7340   50.3720 C   0  0  0  0  0  0  0  0  0  0  0  0
    1.1990    2.0060   48.4280 C   0  0  0  0  0  0  0  0  0  0  0  0
    4.6710   11.8010   55.6320 C   0  0  0  0  0  0  0  0  0  0  0  0
    5.2920   10.8510   58.1800 C   0  0  0  0  0  0  0  0  0  0  0  0
    2.1870    1.9000   51.0420 C   0  0  0  0  0  0  0  0  0  0  0  0
    1.5430    3.1910   49.0720 C   0  0  0  0  0  0  0  0  0  0  0  0
    4.4650   10.4510   55.9500 C   0  0  0  0  0  0  0  0  0  0  0  0
    1.9490    3.1390   50.4170 C   0  0  0  0  0  0  0  0  0  0  0  0
    4.8500    9.9590   57.2070 C   0  0  0  0  0  0  0  0  0  0  0  0
    3.6320    9.6620   53.6920 C   0  0  0  0  0  0  0  0  0  0  0  0
    2.5290    5.5430   51.0390 C   0  0  0  0  0  0  0  0  0  0  0  0
    2.8170    1.7560   52.4150 C   0  0  0  0  0  0  0  0  0  0  0  0
    1.4070    4.4870   48.3110 C   0  0  0  0  0  0  0  0  0  0  0  0
    3.6460    6.7530   53.6130 C   0  0  0  0  0  0  0  0  0  0  0  0
    2.5330    8.7980   53.0690 C   0  0  0  0  0  0  0  0  0  0  0  0
    1.9740    6.6630   51.9230 C   0  0  0  0  0  0  0  0  0  0  0  0
    3.7710    9.5700   55.0610 N   0  0  0  0  0  0  0  0  0  0  0  0
    1.9310    4.3210   51.2230 N   0  0  0  0  0  0  0  0  0  0  0  0
    3.0040    7.4960   52.5590 N   0  0  0  0  0  0  0  0  0  0  0  0
    4.3560   10.3980   53.0480 O   0  0  0  0  0  0  0  0  0  0  0  0
    3.4190    5.6860   50.2210 O   0  0  0  0  0  0  0  0  0  0  0  0
    4.8390    8.1080   57.6080 Br  0  0  0  0  0  0  0  0  0  0  0  0
  1  2  2  0
  1  6  1  0
  2  7  1  0
  3  4  2  0
  3  5  1  0
  4  8  1  0
  5  9  2  0
  6 10  2  0
  7 12  2  0
  8 11  2  0
  8 15  1  0
  9 11  1  0
  9 16  1  0
 10 12  1  0
 10 20  1  0
 11 21  1  0
 12 25  1  0
 13 18  1  0
 13 20  1  0
 13 23  2  0
 14 19  1  0
 14 21  1  0
 14 24  2  0
 17 22  1  0
 18 22  1  0
 19 22  1  0
M  END
>  <washed_aromatic_smiles>  (871) 
Cc1cccc(c1NC(=O)CN(C)CC(=O)Nc2ccccc2Br)C

>  <name>  (871) 
neg243029

$$$$
neg145265
     RDKit          3D

 31 33  0  0  0  0  0  0  0  0999 V2000
    2.6520   -1.0050   52.2840 C   0  0  0  0  0  0  0  0  0  0  0  0
    3.4050    5.4170   48.5530 C   0  0  0  0  0  0  0  0  0  0  0  0
    2.0600   -0.8320   51.0340 C   0  0  0  0  0  0  0  0  0  0  0  0
    2.9170    0.0910   53.0980 C   0  0  0  0  0  0  0  0  0  0  0  0
    3.2410    4.0910   48.1630 C   0  0  0  0  0  0  0  0  0  0  0  0
    5.2590   13.4990   55.1930 C   0  0  0  0  0  0  0  0  0  0  0  0
    5.4910   12.7460   54.0520 C   0  0  0  0  0  0  0  0  0  0  0  0
    5.1430   12.8890   56.4360 C   0  0  0  0  0  0  0  0  0  0  0  0
    3.0550    5.8340   49.8240 C   0  0  0  0  0  0  0  0  0  0  0  0
    1.6900    0.4340   50.6080 C   0  0  0  0  0  0  0  0  0  0  0  0
    2.5900    1.3660   52.6630 C   0  0  0  0  0  0  0  0  0  0  0  0
    2.6370    3.1870   49.0250 C   0  0  0  0  0  0  0  0  0  0  0  0
    5.4760   11.3630   54.1230 C   0  0  0  0  0  0  0  0  0  0  0  0
    5.0780   11.5060   56.5310 C   0  0  0  0  0  0  0  0  0  0  0  0
    2.4470    4.9400   50.6920 C   0  0  0  0  0  0  0  0  0  0  0  0
    5.0800   10.7710   55.3310 C   0  0  0  0  0  0  0  0  0  0  0  0
    1.9570    1.5220   51.4330 C   0  0  0  0  0  0  0  0  0  0  0  0
    2.2220    3.6200   50.2790 C   0  0  0  0  0  0  0  0  0  0  0  0
    1.0190    6.3720   52.0410 C   0  0  0  0  0  0  0  0  0  0  0  0
    3.1630    9.3150   55.5810 C   0  0  0  0  0  0  0  0  0  0  0  0
    5.8590   10.5740   52.8890 C   0  0  0  0  0  0  0  0  0  0  0  0
    4.9650   10.8770   57.9110 C   0  0  0  0  0  0  0  0  0  0  0  0
    3.1230    8.2070   52.6750 C   0  0  0  0  0  0  0  0  0  0  0  0
    0.8970    7.3030   53.2400 C   0  0  0  0  0  0  0  0  0  0  0  0
    2.3410    8.2300   54.9330 C   0  0  0  0  0  0  0  0  0  0  0  0
    2.0430    5.4560   51.9500 N   0  0  0  0  0  0  0  0  0  0  0  0
    4.4950    9.4840   55.2510 N   0  0  0  0  0  0  0  0  0  0  0  0
    1.9590    8.3250   53.5240 N   0  0  0  0  0  0  0  0  0  0  0  0
    0.1980    6.4030   51.1550 O   0  0  0  0  0  0  0  0  0  0  0  0
    2.6360   10.0420   56.3990 O   0  0  0  0  0  0  0  0  0  0  0  0
    1.5310    2.7660   51.0750 O   0  0  0  0  0  0  0  0  0  0  0  0
  1  3  2  0
  1  4  1  0
  2  5  2  0
  2  9  1  0
  3 10  1  0
  4 11  2  0
  5 12  1  0
  6  7  2  0
  6  8  1  0
  7 13  1  0
  8 14  2  0
  9 15  2  0
 10 17  2  0
 11 17  1  0
 12 18  2  0
 13 16  2  0
 13 21  1  0
 14 16  1  0
 14 22  1  0
 15 18  1  0
 15 26  1  0
 16 27  1  0
 17 31  1  0
 18 31  1  0
 19 24  1  0
 19 26  1  0
 19 29  2  0
 20 25  1  0
 20 27  1  0
 20 30  2  0
 23 28  1  0
 24 28  1  0
 25 28  1  0
M  END
>  <washed_aromatic_smiles>  (872) 
Cc1cccc(c1NC(=O)CN(C)CC(=O)Nc2ccccc2Oc3ccccc3)C

>  <name>  (872) 
neg145265

$$$$
neg153550
     RDKit          3D

 28 30  0  0  0  0  0  0  0  0999 V2000
    3.1200   -0.0720   55.5500 C   0  0  0  0  0  0  0  0  0  0  0  0
    3.6930    0.9130   54.8410 C   0  0  0  0  0  0  0  0  0  0  0  0
    2.1240   -0.8240   54.9790 C   0  0  0  0  0  0  0  0  0  0  0  0
   -0.6560   -0.1710   48.3710 C   0  0  0  0  0  0  0  0  0  0  0  0
    3.3050    7.4750   50.4120 C   0  0  0  0  0  0  0  0  0  0  0  0
   -0.4220    0.6810   47.3090 C   0  0  0  0  0  0  0  0  0  0  0  0
    3.5380    6.5610   49.3870 C   0  0  0  0  0  0  0  0  0  0  0  0
    2.4100    7.2390   51.4400 C   0  0  0  0  0  0  0  0  0  0  0  0
    3.5520    0.9450   53.4590 C   0  0  0  0  0  0  0  0  0  0  0  0
    1.9610   -0.8100   53.6100 C   0  0  0  0  0  0  0  0  0  0  0  0
    0.2340   -0.1270   49.4020 C   0  0  0  0  0  0  0  0  0  0  0  0
    0.6560    1.5400   47.2920 C   0  0  0  0  0  0  0  0  0  0  0  0
    2.8430    5.3800   49.3730 C   0  0  0  0  0  0  0  0  0  0  0  0
    1.5920    6.1440   51.3620 C   0  0  0  0  0  0  0  0  0  0  0  0
    1.8860    5.2100   50.3640 C   0  0  0  0  0  0  0  0  0  0  0  0
    2.7920   -0.0260   52.8400 C   0  0  0  0  0  0  0  0  0  0  0  0
    1.2980    0.7570   49.3160 C   0  0  0  0  0  0  0  0  0  0  0  0
    1.9370    3.1030   51.2720 C   0  0  0  0  0  0  0  0  0  0  0  0
    3.1040    4.3280   48.3150 C   0  0  0  0  0  0  0  0  0  0  0  0
    0.4020    6.1110   52.2900 C   0  0  0  0  0  0  0  0  0  0  0  0
    1.2980    1.7740   51.2900 C   0  0  0  0  0  0  0  0  0  0  0  0
    1.4990    1.5850   48.3020 N   0  0  0  0  0  0  0  0  0  0  0  0
    1.3560    3.9710   50.4370 N   0  0  0  0  0  0  0  0  0  0  0  0
    2.0680    0.9600   50.4120 N   0  0  0  0  0  0  0  0  0  0  0  0
    2.8550    3.4230   51.9970 O   0  0  0  0  0  0  0  0  0  0  0  0
    4.2820   -0.1930   50.7400 O   0  0  0  0  0  0  0  0  0  0  0  0
    2.2610   -1.5110   50.7930 O   0  0  0  0  0  0  0  0  0  0  0  0
    2.9130   -0.2950   51.0970 S   0  0  0  0  0  0  0  0  0  0  0  0
  1  2  2  0
  1  3  1  0
  2  9  1  0
  3 10  2  0
  4  6  2  0
  4 11  1  0
  5  7  2  0
  5  8  1  0
  6 12  1  0
  7 13  1  0
  8 14  2  0
  9 16  2  0
 10 16  1  0
 11 17  2  0
 12 22  2  0
 13 15  2  0
 13 19  1  0
 14 15  1  0
 14 20  1  0
 15 23  1  0
 16 28  1  0
 17 22  1  0
 17 24  1  0
 18 21  1  0
 18 23  1  0
 18 25  2  0
 21 24  1  0
 24 28  1  0
 26 28  2  0
 27 28  2  0
M  END
>  <washed_aromatic_smiles>  (873) 
Cc1cccc(c1NC(=O)CN(c2ccccn2)S(=O)(=O)c3ccccc3)C

>  <name>  (873) 
neg153550

$$$$
neg23308
     RDKit          3D

 29 31  0  0  0  0  0  0  0  0999 V2000
    2.1720   -0.3810   53.1860 C   0  0  0  0  0  0  0  0  0  0  0  0
    1.0580    0.4440   53.1990 C   0  0  0  0  0  0  0  0  0  0  0  0
    2.5290   -1.0340   52.0150 C   0  0  0  0  0  0  0  0  0  0  0  0
    5.2620   11.8070   56.7670 C   0  0  0  0  0  0  0  0  0  0  0  0
    2.6200    3.6210   50.7150 C   0  0  0  0  0  0  0  0  0  0  0  0
    1.8740    4.5880   48.6520 C   0  0  0  0  0  0  0  0  0  0  0  0
    4.3230   10.8320   57.0790 C   0  0  0  0  0  0  0  0  0  0  0  0
    5.7140   11.9450   55.4600 C   0  0  0  0  0  0  0  0  0  0  0  0
    2.2060    2.3840   50.2690 C   0  0  0  0  0  0  0  0  0  0  0  0
    1.3620    3.3610   48.2540 C   0  0  0  0  0  0  0  0  0  0  0  0
    0.2890    0.6140   52.0510 C   0  0  0  0  0  0  0  0  0  0  0  0
    1.7900   -0.8620   50.8500 C   0  0  0  0  0  0  0  0  0  0  0  0
    2.4690    4.7430   49.9110 C   0  0  0  0  0  0  0  0  0  0  0  0
    1.4870    2.2460   49.0760 C   0  0  0  0  0  0  0  0  0  0  0  0
    3.8090    9.9940   56.0920 C   0  0  0  0  0  0  0  0  0  0  0  0
    5.2420   11.1040   54.4560 C   0  0  0  0  0  0  0  0  0  0  0  0
    4.2800   10.1290   54.7700 C   0  0  0  0  0  0  0  0  0  0  0  0
    0.6790   -0.0190   50.8730 C   0  0  0  0  0  0  0  0  0  0  0  0
    2.9450    6.0330   50.3800 C   0  0  0  0  0  0  0  0  0  0  0  0
    3.3860    8.0790   53.5060 C   0  0  0  0  0  0  0  0  0  0  0  0
    2.7310    9.0220   56.5080 C   0  0  0  0  0  0  0  0  0  0  0  0
    5.7550   11.2830   53.0400 C   0  0  0  0  0  0  0  0  0  0  0  0
    0.8080    0.9440   48.6540 C   0  0  0  0  0  0  0  0  0  0  0  0
    2.7330    7.7700   52.1720 C   0  0  0  0  0  0  0  0  0  0  0  0
    3.7340    9.4060   53.6570 N   0  0  0  0  0  0  0  0  0  0  0  0
    2.7270    6.3740   51.7040 N   0  0  0  0  0  0  0  0  0  0  0  0
    3.5230    6.8100   49.6300 O   0  0  0  0  0  0  0  0  0  0  0  0
    3.5660    7.2550   54.3800 O   0  0  0  0  0  0  0  0  0  0  0  0
    0.0320    0.3060   49.7130 O   0  0  0  0  0  0  0  0  0  0  0  0
  1  2  2  0
  1  3  1  0
  2 11  1  0
  3 12  2  0
  4  7  2  0
  4  8  1  0
  5  9  2  0
  5 13  1  0
  6 10  1  0
  6 13  2  0
  7 15  1  0
  8 16  2  0
  9 14  1  0
 10 14  2  0
 11 18  2  0
 12 18  1  0
 13 19  1  0
 14 23  1  0
 15 17  2  0
 15 21  1  0
 16 17  1  0
 16 22  1  0
 17 25  1  0
 18 29  1  0
 19 26  1  0
 19 27  2  0
 20 24  1  0
 20 25  1  0
 20 28  2  0
 23 29  1  0
 24 26  1  0
M  END
>  <washed_aromatic_smiles>  (874) 
Cc1cccc(c1NC(=O)CNC(=O)c2ccc(cc2)COc3ccccc3)C

>  <name>  (874) 
neg23308

$$$$
neg84628
     RDKit          3D

 27 28  0  0  0  0  0  0  0  0999 V2000
    0.5210   -0.3880   48.8540 C   0  0  0  0  0  0  0  0  0  0  0  0
    1.3290    7.7220   54.2030 C   0  0  0  0  0  0  0  0  0  0  0  0
    0.5010    0.8690   48.2680 C   0  0  0  0  0  0  0  0  0  0  0  0
    1.3690   -0.6450   49.9240 C   0  0  0  0  0  0  0  0  0  0  0  0
    2.0700    8.6030   54.9780 C   0  0  0  0  0  0  0  0  0  0  0  0
    1.7320    7.3630   52.9120 C   0  0  0  0  0  0  0  0  0  0  0  0
    1.2790    1.8950   48.7920 C   0  0  0  0  0  0  0  0  0  0  0  0
    2.1710    0.3510   50.4620 C   0  0  0  0  0  0  0  0  0  0  0  0
    2.0510    1.6520   49.9390 C   0  0  0  0  0  0  0  0  0  0  0  0
    3.2270    9.1810   54.4580 C   0  0  0  0  0  0  0  0  0  0  0  0
    2.8500    8.0040   52.3640 C   0  0  0  0  0  0  0  0  0  0  0  0
    3.5750    8.9460   53.1210 C   0  0  0  0  0  0  0  0  0  0  0  0
    0.9430    6.3980   52.1790 C   0  0  0  0  0  0  0  0  0  0  0  0
    2.7900    3.1630   51.8070 C   0  0  0  0  0  0  0  0  0  0  0  0
    1.2920    3.2460   48.0980 C   0  0  0  0  0  0  0  0  0  0  0  0
    3.1750   -0.0860   51.5090 C   0  0  0  0  0  0  0  0  0  0  0  0
    3.7700   10.2760   56.6680 C   0  0  0  0  0  0  0  0  0  0  0  0
    3.3380    6.8410   49.8950 C   0  0  0  0  0  0  0  0  0  0  0  0
    5.4920   10.6880   52.9720 C   0  0  0  0  0  0  0  0  0  0  0  0
    2.7850    4.6510   52.0290 C   0  0  0  0  0  0  0  0  0  0  0  0
    2.6500    2.8090   50.4920 N   0  0  0  0  0  0  0  0  0  0  0  0
   -0.2420    6.5560   51.9580 O   0  0  0  0  0  0  0  0  0  0  0  0
    2.8650    2.3670   52.7170 O   0  0  0  0  0  0  0  0  0  0  0  0
    4.0180    9.9790   55.2710 O   0  0  0  0  0  0  0  0  0  0  0  0
    3.2220    7.7650   51.0480 O   0  0  0  0  0  0  0  0  0  0  0  0
    4.6090    9.6490   52.5030 O   0  0  0  0  0  0  0  0  0  0  0  0
    1.4670    5.2240   51.7600 O   0  0  0  0  0  0  0  0  0  0  0  0
  1  3  2  0
  1  4  1  0
  2  5  2  0
  2  6  1  0
  3  7  1  0
  4  8  2  0
  5 10  1  0
  6 11  2  0
  6 13  1  0
  7  9  2  0
  7 15  1  0
  8  9  1  0
  8 16  1  0
  9 21  1  0
 10 12  2  0
 10 24  1  0
 11 12  1  0
 11 25  1  0
 12 26  1  0
 13 22  2  0
 13 27  1  0
 14 20  1  0
 14 21  1  0
 14 23  2  0
 17 24  1  0
 18 25  1  0
 19 26  1  0
 20 27  1  0
M  END
>  <washed_aromatic_smiles>  (875) 
Cc1cccc(c1NC(=O)COC(=O)c2ccc(c(c2OC)OC)OC)C

>  <name>  (875) 
neg84628

$$$$
neg44756
     RDKit          3D

 31 34  0  0  0  0  0  0  0  0999 V2000
    5.1860   12.0790   56.4290 C   0  0  0  0  0  0  0  0  0  0  0  0
    4.2960   11.1590   56.9730 C   0  0  0  0  0  0  0  0  0  0  0  0
    5.5650   11.9760   55.0940 C   0  0  0  0  0  0  0  0  0  0  0  0
    3.7530   10.1520   56.1820 C   0  0  0  0  0  0  0  0  0  0  0  0
    5.0460   10.9720   54.2810 C   0  0  0  0  0  0  0  0  0  0  0  0
    4.0970   10.0900   54.8250 C   0  0  0  0  0  0  0  0  0  0  0  0
    2.8170    2.4480   52.1850 C   0  0  0  0  0  0  0  0  0  0  0  0
    1.8320    2.8060   50.1710 C   0  0  0  0  0  0  0  0  0  0  0  0
    2.5320    4.6050   51.4090 C   0  0  0  0  0  0  0  0  0  0  0  0
    4.0370    7.9110   53.7580 C   0  0  0  0  0  0  0  0  0  0  0  0
    2.8980    0.0590   52.8040 C   0  0  0  0  0  0  0  0  0  0  0  0
    2.6310    1.7120   54.5160 C   0  0  0  0  0  0  0  0  0  0  0  0
    0.7940    0.7330   49.3330 C   0  0  0  0  0  0  0  0  0  0  0  0
    1.2220    2.6980   47.7710 C   0  0  0  0  0  0  0  0  0  0  0  0
    3.0580   -0.9400   53.9580 C   0  0  0  0  0  0  0  0  0  0  0  0
    3.0530    0.6840   55.5320 C   0  0  0  0  0  0  0  0  0  0  0  0
    0.1460    0.0210   48.1560 C   0  0  0  0  0  0  0  0  0  0  0  0
    0.5340    1.7940   46.7140 C   0  0  0  0  0  0  0  0  0  0  0  0
    2.8250    9.1280   56.7910 C   0  0  0  0  0  0  0  0  0  0  0  0
    5.5660   10.8560   52.8630 C   0  0  0  0  0  0  0  0  0  0  0  0
    3.1740    6.7020   53.3680 C   0  0  0  0  0  0  0  0  0  0  0  0
    2.3110    1.9750   51.0740 N   0  0  0  0  0  0  0  0  0  0  0  0
    2.9280    3.7700   52.3930 N   0  0  0  0  0  0  0  0  0  0  0  0
    1.9640    4.1370   50.2740 N   0  0  0  0  0  0  0  0  0  0  0  0
    3.1340    1.4800   53.1600 N   0  0  0  0  0  0  0  0  0  0  0  0
    1.1200    2.1840   49.1390 N   0  0  0  0  0  0  0  0  0  0  0  0
    3.4390    9.1080   54.0250 N   0  0  0  0  0  0  0  0  0  0  0  0
    5.2310    7.8440   53.9800 O   0  0  0  0  0  0  0  0  0  0  0  0
    2.4430   -0.5440   55.1510 O   0  0  0  0  0  0  0  0  0  0  0  0
    0.7460    0.4130   46.9410 O   0  0  0  0  0  0  0  0  0  0  0  0
    2.7440    6.3440   51.6050 S   0  0  0  0  0  0  0  0  0  0  0  0
  1  2  2  0
  1  3  1  0
  2  4  1  0
  3  5  2  0
  4  6  2  0
  4 19  1  0
  5  6  1  0
  5 20  1  0
  6 27  1  0
  7 22  2  0
  7 23  1  0
  7 25  1  0
  8 22  1  0
  8 24  2  0
  8 26  1  0
  9 23  2  0
  9 24  1  0
  9 31  1  0
 10 21  1  0
 10 27  1  0
 10 28  2  0
 11 15  1  0
 11 25  1  0
 12 16  1  0
 12 25  1  0
 13 17  1  0
 13 26  1  0
 14 18  1  0
 14 26  1  0
 15 29  1  0
 16 29  1  0
 17 30  1  0
 18 30  1  0
 21 31  1  0
M  END
>  <washed_aromatic_smiles>  (876) 
Cc1cccc(c1NC(=O)CSc2nc(nc(n2)N3CCOCC3)N4CCOCC4)C

>  <name>  (876) 
neg44756

$$$$
neg239693
     RDKit          3D

 26 28  0  0  0  0  0  0  0  0999 V2000
    5.9270    7.8620   59.3620 C   0  0  0  0  0  0  0  0  0  0  0  0
    5.3960   13.6380   54.5510 C   0  0  0  0  0  0  0  0  0  0  0  0
    5.5050    9.1840   59.2920 C   0  0  0  0  0  0  0  0  0  0  0  0
    5.5480    6.9750   58.3640 C   0  0  0  0  0  0  0  0  0  0  0  0
    5.6590   12.9990   55.7510 C   0  0  0  0  0  0  0  0  0  0  0  0
    4.9660   12.9470   53.4350 C   0  0  0  0  0  0  0  0  0  0  0  0
    0.8390    4.8990   51.4150 C   0  0  0  0  0  0  0  0  0  0  0  0
    4.6910    9.6140   58.2650 C   0  0  0  0  0  0  0  0  0  0  0  0
    4.7800    7.4270   57.2960 C   0  0  0  0  0  0  0  0  0  0  0  0
    1.9590    5.0100   50.6320 C   0  0  0  0  0  0  0  0  0  0  0  0
    0.3230    5.9710   52.1290 C   0  0  0  0  0  0  0  0  0  0  0  0
    5.4710   11.6410   55.8400 C   0  0  0  0  0  0  0  0  0  0  0  0
    4.7230   11.5990   53.5270 C   0  0  0  0  0  0  0  0  0  0  0  0
    4.3650    8.7570   57.2280 C   0  0  0  0  0  0  0  0  0  0  0  0
    2.6570    6.1910   50.6310 C   0  0  0  0  0  0  0  0  0  0  0  0
    1.0300    7.1530   52.1980 C   0  0  0  0  0  0  0  0  0  0  0  0
    4.9410   10.9490   54.7500 C   0  0  0  0  0  0  0  0  0  0  0  0
    2.2800    7.1840   51.5620 C   0  0  0  0  0  0  0  0  0  0  0  0
    3.6550    8.0230   53.2820 C   0  0  0  0  0  0  0  0  0  0  0  0
    3.6730    6.3000   49.5280 C   0  0  0  0  0  0  0  0  0  0  0  0
    0.4560    8.3510   52.9520 C   0  0  0  0  0  0  0  0  0  0  0  0
    3.6480    9.3420   56.0340 C   0  0  0  0  0  0  0  0  0  0  0  0
    3.1580    8.1860   51.9840 N   0  0  0  0  0  0  0  0  0  0  0  0
    4.6320    8.9010   53.6320 N   0  0  0  0  0  0  0  0  0  0  0  0
    4.5850    9.6240   54.9110 N   0  0  0  0  0  0  0  0  0  0  0  0
    3.1800    6.7980   54.2970 S   0  0  0  0  0  0  0  0  0  0  0  0
  1  3  2  0
  1  4  1  0
  2  5  2  0
  2  6  1  0
  3  8  1  0
  4  9  2  0
  5 12  1  0
  6 13  2  0
  7 10  2  0
  7 11  1  0
  8 14  2  0
  9 14  1  0
 10 15  1  0
 11 16  2  0
 12 17  2  0
 13 17  1  0
 14 22  1  0
 15 18  2  0
 15 20  1  0
 16 18  1  0
 16 21  1  0
 17 25  1  0
 18 23  1  0
 19 23  1  0
 19 24  1  0
 19 26  2  0
 22 25  1  0
 24 25  1  0
M  END
>  <washed_aromatic_smiles>  (877) 
Cc1cccc(c1NC(=S)NN(Cc2ccccc2)c3ccccc3)C

>  <name>  (877) 
neg239693

$$$$
neg103517
     RDKit          3D

 27 29  0  0  0  0  0  0  0  0999 V2000
    1.1230    3.9060   47.6060 C   0  0  0  0  0  0  0  0  0  0  0  0
    0.8520    2.5490   47.7590 C   0  0  0  0  0  0  0  0  0  0  0  0
    3.6550    7.6250   53.8790 C   0  0  0  0  0  0  0  0  0  0  0  0
    1.9820    4.5690   48.4380 C   0  0  0  0  0  0  0  0  0  0  0  0
    2.7050    1.5520   53.9910 C   0  0  0  0  0  0  0  0  0  0  0  0
    2.4510   -0.6310   53.0220 C   0  0  0  0  0  0  0  0  0  0  0  0
    1.3900    1.8760   48.8410 C   0  0  0  0  0  0  0  0  0  0  0  0
    3.2690    1.0160   55.1360 C   0  0  0  0  0  0  0  0  0  0  0  0
    3.1230   -1.1530   54.1000 C   0  0  0  0  0  0  0  0  0  0  0  0
    2.5460    8.4580   53.8300 C   0  0  0  0  0  0  0  0  0  0  0  0
    3.6060    6.4420   53.1660 C   0  0  0  0  0  0  0  0  0  0  0  0
    2.2580    0.7350   52.9490 C   0  0  0  0  0  0  0  0  0  0  0  0
    2.4390    3.9550   49.5820 C   0  0  0  0  0  0  0  0  0  0  0  0
    2.1350    2.5990   49.7790 C   0  0  0  0  0  0  0  0  0  0  0  0
    3.5220   -0.3480   55.1670 C   0  0  0  0  0  0  0  0  0  0  0  0
    1.4370    8.0750   53.0780 C   0  0  0  0  0  0  0  0  0  0  0  0
    2.4470    6.1330   52.4640 C   0  0  0  0  0  0  0  0  0  0  0  0
    1.6700    1.2720   51.7560 C   0  0  0  0  0  0  0  0  0  0  0  0
    3.0350    4.8390   50.5390 C   0  0  0  0  0  0  0  0  0  0  0  0
    0.2530    8.9780   52.9270 C   0  0  0  0  0  0  0  0  0  0  0  0
    5.0680   -0.1600   57.1280 C   0  0  0  0  0  0  0  0  0  0  0  0
    1.3790    6.9170   52.4310 N   0  0  0  0  0  0  0  0  0  0  0  0
    2.5330    1.9840   50.9600 N   0  0  0  0  0  0  0  0  0  0  0  0
    2.3630    4.9660   51.7270 N   0  0  0  0  0  0  0  0  0  0  0  0
    0.4920    1.1180   51.4500 O   0  0  0  0  0  0  0  0  0  0  0  0
    3.9740    5.5730   50.2680 O   0  0  0  0  0  0  0  0  0  0  0  0
    4.2650   -0.9060   56.1810 O   0  0  0  0  0  0  0  0  0  0  0  0
  1  2  2  0
  1  4  1  0
  2  7  1  0
  3 10  2  0
  3 11  1  0
  4 13  2  0
  5  8  2  0
  5 12  1  0
  6  9  1  0
  6 12  2  0
  7 14  2  0
  8 15  1  0
  9 15  2  0
 10 16  1  0
 11 17  2  0
 12 18  1  0
 13 14  1  0
 13 19  1  0
 14 23  1  0
 15 27  1  0
 16 20  1  0
 16 22  2  0
 17 22  1  0
 17 24  1  0
 18 23  1  0
 18 25  2  0
 19 24  1  0
 19 26  2  0
 21 27  1  0
M  END
>  <washed_aromatic_smiles>  (878) 
Cc1cccc(n1)NC(=O)c2ccccc2NC(=O)c3ccc(cc3)OC

>  <name>  (878) 
neg103517

$$$$
neg41476
     RDKit          3D

 27 30  0  0  0  0  0  0  0  0999 V2000
    3.9610    8.6600   57.1030 C   0  0  0  0  0  0  0  0  0  0  0  0
    2.6270    8.8950   56.7960 C   0  0  0  0  0  0  0  0  0  0  0  0
    4.8450    8.3060   56.0930 C   0  0  0  0  0  0  0  0  0  0  0  0
    2.0770   -1.3380   51.1920 C   0  0  0  0  0  0  0  0  0  0  0  0
    1.6180   -0.6840   50.0780 C   0  0  0  0  0  0  0  0  0  0  0  0
    2.4840   -0.6550   52.3350 C   0  0  0  0  0  0  0  0  0  0  0  0
    2.1760    8.7710   55.4870 C   0  0  0  0  0  0  0  0  0  0  0  0
    4.3980    8.2130   54.7780 C   0  0  0  0  0  0  0  0  0  0  0  0
    1.2380    2.8390   48.9660 C   0  0  0  0  0  0  0  0  0  0  0  0
    1.6230    0.7250   50.0320 C   0  0  0  0  0  0  0  0  0  0  0  0
    2.4620    0.7110   52.3520 C   0  0  0  0  0  0  0  0  0  0  0  0
    1.1870    1.4730   48.8940 C   0  0  0  0  0  0  0  0  0  0  0  0
    2.0870    1.4200   51.1770 C   0  0  0  0  0  0  0  0  0  0  0  0
    3.0600    8.4570   54.4630 C   0  0  0  0  0  0  0  0  0  0  0  0
    1.6520    3.4530   50.1750 C   0  0  0  0  0  0  0  0  0  0  0  0
    0.9830    5.1820   51.6970 C   0  0  0  0  0  0  0  0  0  0  0  0
    2.7030    5.5440   50.0450 C   0  0  0  0  0  0  0  0  0  0  0  0
    0.9030    6.6500   52.0530 C   0  0  0  0  0  0  0  0  0  0  0  0
    3.1420    6.5980   51.0710 C   0  0  0  0  0  0  0  0  0  0  0  0
    2.7550    1.3830   53.6730 C   0  0  0  0  0  0  0  0  0  0  0  0
    0.6240    0.7970   47.6550 C   0  0  0  0  0  0  0  0  0  0  0  0
    2.1280    2.7710   51.1810 N   0  0  0  0  0  0  0  0  0  0  0  0
    1.4860    4.8200   50.3570 N   0  0  0  0  0  0  0  0  0  0  0  0
    2.2350    7.1950   52.0690 N   0  0  0  0  0  0  0  0  0  0  0  0
    1.3800    9.4570   52.7470 O   0  0  0  0  0  0  0  0  0  0  0  0
    3.7140    9.2370   52.1380 O   0  0  0  0  0  0  0  0  0  0  0  0
    2.5710    8.6770   52.7580 S   0  0  0  0  0  0  0  0  0  0  0  0
  1  2  2  0
  1  3  1  0
  2  7  1  0
  3  8  2  0
  4  5  2  0
  4  6  1  0
  5 10  1  0
  6 11  2  0
  7 14  2  0
  8 14  1  0
  9 12  1  0
  9 15  2  0
 10 12  2  0
 10 13  1  0
 11 13  1  0
 11 20  1  0
 12 21  1  0
 13 22  2  0
 14 27  1  0
 15 22  1  0
 15 23  1  0
 16 18  1  0
 16 23  1  0
 17 19  1  0
 17 23  1  0
 18 24  1  0
 19 24  1  0
 24 27  1  0
 25 27  2  0
 26 27  2  0
M  END
>  <washed_aromatic_smiles>  (879) 
Cc1cccc2c1nc(cc2C)N3CCN(CC3)S(=O)(=O)c4ccccc4

>  <name>  (879) 
neg41476

$$$$
neg178706
     RDKit          3D

 30 33  0  0  0  0  0  0  0  0999 V2000
    3.6380    9.6590   57.1970 C   0  0  0  0  0  0  0  0  0  0  0  0
    4.3660    8.5220   57.5110 C   0  0  0  0  0  0  0  0  0  0  0  0
    0.8730    1.9200   49.7840 C   0  0  0  0  0  0  0  0  0  0  0  0
    2.8490    9.6760   56.0740 C   0  0  0  0  0  0  0  0  0  0  0  0
    1.4070    1.0560   50.6840 C   0  0  0  0  0  0  0  0  0  0  0  0
    2.5570    2.9290   51.7490 C   0  0  0  0  0  0  0  0  0  0  0  0
    1.8580    3.8610   50.9920 C   0  0  0  0  0  0  0  0  0  0  0  0
    4.2990    7.4070   56.7020 C   0  0  0  0  0  0  0  0  0  0  0  0
    3.5930    7.4780   55.4400 C   0  0  0  0  0  0  0  0  0  0  0  0
    1.3020    3.2510   49.8160 C   0  0  0  0  0  0  0  0  0  0  0  0
    2.8480    8.6110   55.1490 C   0  0  0  0  0  0  0  0  0  0  0  0
    2.3600    1.5630   51.5460 C   0  0  0  0  0  0  0  0  0  0  0  0
    2.7590    6.8420   53.4170 C   0  0  0  0  0  0  0  0  0  0  0  0
    1.7050    5.2700   51.5390 C   0  0  0  0  0  0  0  0  0  0  0  0
    3.6710    4.3320   48.4110 C   0  0  0  0  0  0  0  0  0  0  0  0
    2.8800    5.5910   48.4710 C   0  0  0  0  0  0  0  0  0  0  0  0
    2.6660    3.2870   48.0220 C   0  0  0  0  0  0  0  0  0  0  0  0
    1.4230    5.0860   48.3680 C   0  0  0  0  0  0  0  0  0  0  0  0
    4.8930    6.1760   57.3780 C   0  0  0  0  0  0  0  0  0  0  0  0
    1.6790   -0.5660   53.7430 C   0  0  0  0  0  0  0  0  0  0  0  0
    3.0960    1.0320   54.7840 C   0  0  0  0  0  0  0  0  0  0  0  0
    3.4860    6.5250   54.4370 N   0  0  0  0  0  0  0  0  0  0  0  0
    1.3980    3.7020   48.5370 N   0  0  0  0  0  0  0  0  0  0  0  0
    2.7460    5.8640   52.3100 N   0  0  0  0  0  0  0  0  0  0  0  0
    2.9770    0.0820   53.6810 N   0  0  0  0  0  0  0  0  0  0  0  0
    0.6690    5.9180   51.4530 O   0  0  0  0  0  0  0  0  0  0  0  0
    3.5120   -0.7090   51.3340 O   0  0  0  0  0  0  0  0  0  0  0  0
    4.7290    1.2150   52.1380 O   0  0  0  0  0  0  0  0  0  0  0  0
    2.0120    8.4030   53.6040 S   0  0  0  0  0  0  0  0  0  0  0  0
    3.5320    0.4580   52.1490 S   0  0  0  0  0  0  0  0  0  0  0  0
  1  2  2  0
  1  4  1  0
  2  8  1  0
  3  5  2  0
  3 10  1  0
  4 11  2  0
  5 12  1  0
  6  7  1  0
  6 12  2  0
  7 10  2  0
  7 14  1  0
  8  9  2  0
  8 19  1  0
  9 11  1  0
  9 22  1  0
 10 23  1  0
 11 29  1  0
 12 30  1  0
 13 22  2  0
 13 24  1  0
 13 29  1  0
 14 24  1  0
 14 26  2  0
 15 16  1  0
 15 17  1  0
 16 18  1  0
 17 23  1  0
 18 23  1  0
 20 25  1  0
 21 25  1  0
 25 30  1  0
 27 30  2  0
 28 30  2  0
M  END
>  <washed_aromatic_smiles>  (880) 
Cc1cccc2c1nc(s2)NC(=O)c3cc(ccc3N4CCCC4)S(=O)(=O)N(C)C

>  <name>  (880) 
neg178706

$$$$
neg55054
     RDKit          3D

 31 34  0  0  0  0  0  0  0  0999 V2000
    0.5730    1.4240   45.5120 C   0  0  0  0  0  0  0  0  0  0  0  0
    6.6270    8.2170   57.1520 C   0  0  0  0  0  0  0  0  0  0  0  0
    0.1050    1.9610   46.6900 C   0  0  0  0  0  0  0  0  0  0  0  0
    1.2560    0.2380   45.5080 C   0  0  0  0  0  0  0  0  0  0  0  0
    5.8520    8.0660   58.2590 C   0  0  0  0  0  0  0  0  0  0  0  0
    6.0720    8.6460   55.9430 C   0  0  0  0  0  0  0  0  0  0  0  0
    0.2480    1.2570   47.8600 C   0  0  0  0  0  0  0  0  0  0  0  0
    1.4110   -0.4840   46.6830 C   0  0  0  0  0  0  0  0  0  0  0  0
    4.5260    8.3800   58.1640 C   0  0  0  0  0  0  0  0  0  0  0  0
    2.3920    4.8430   50.2160 C   0  0  0  0  0  0  0  0  0  0  0  0
    2.8920    3.7050   52.2830 C   0  0  0  0  0  0  0  0  0  0  0  0
    2.2940    3.6070   49.5890 C   0  0  0  0  0  0  0  0  0  0  0  0
    2.8200    2.4870   51.6740 C   0  0  0  0  0  0  0  0  0  0  0  0
    4.7390    9.0300   55.8600 C   0  0  0  0  0  0  0  0  0  0  0  0
    0.8780    0.0220   47.8610 C   0  0  0  0  0  0  0  0  0  0  0  0
    3.9530    8.9240   57.0110 C   0  0  0  0  0  0  0  0  0  0  0  0
    2.6920    4.9020   51.5840 C   0  0  0  0  0  0  0  0  0  0  0  0
    2.4940    2.4480   50.3410 C   0  0  0  0  0  0  0  0  0  0  0  0
    4.1960    9.4340   54.5610 C   0  0  0  0  0  0  0  0  0  0  0  0
    1.4940    0.2440   50.2550 C   0  0  0  0  0  0  0  0  0  0  0  0
    3.6380    6.2440   53.4430 C   0  0  0  0  0  0  0  0  0  0  0  0
    2.4980    7.4400   51.7140 C   0  0  0  0  0  0  0  0  0  0  0  0
    3.0650    7.2430   54.4190 C   0  0  0  0  0  0  0  0  0  0  0  0
    2.9540    8.7330   52.4900 C   0  0  0  0  0  0  0  0  0  0  0  0
    2.5140    9.3930   56.9710 C   0  0  0  0  0  0  0  0  0  0  0  0
    1.0120   -0.6800   49.1800 C   0  0  0  0  0  0  0  0  0  0  0  0
    2.8030    6.1320   52.2840 N   0  0  0  0  0  0  0  0  0  0  0  0
    3.3090    8.5810   53.9180 N   0  0  0  0  0  0  0  0  0  0  0  0
    2.3490    1.2020   49.7780 N   0  0  0  0  0  0  0  0  0  0  0  0
    4.5340   10.4800   54.0110 O   0  0  0  0  0  0  0  0  0  0  0  0
    1.0700    0.2310   51.3980 O   0  0  0  0  0  0  0  0  0  0  0  0
  1  3  2  0
  1  4  1  0
  2  5  2  0
  2  6  1  0
  3  7  1  0
  4  8  2  0
  5  9  1  0
  6 14  2  0
  7 15  2  0
  8 15  1  0
  9 16  2  0
 10 12  2  0
 10 17  1  0
 11 13  1  0
 11 17  2  0
 12 18  1  0
 13 18  2  0
 14 16  1  0
 14 19  1  0
 15 26  1  0
 16 25  1  0
 17 27  1  0
 18 29  1  0
 19 28  1  0
 19 30  2  0
 20 26  1  0
 20 29  1  0
 20 31  2  0
 21 23  1  0
 21 27  1  0
 22 24  1  0
 22 27  1  0
 23 28  1  0
 24 28  1  0
M  END
>  <washed_aromatic_smiles>  (881) 
Cc1ccccc1C(=O)N2CCN(CC2)c3ccc(cc3)NC(=O)Cc4ccccc4

>  <name>  (881) 
neg55054

$$$$
neg233743
     RDKit          3D

 25 27  0  0  0  0  0  0  0  0999 V2000
    5.1600   13.5320   54.6220 C   0  0  0  0  0  0  0  0  0  0  0  0
    4.7730   12.5830   55.5500 C   0  0  0  0  0  0  0  0  0  0  0  0
    5.3850   13.1750   53.2990 C   0  0  0  0  0  0  0  0  0  0  0  0
    3.0880    4.8890   49.4830 C   0  0  0  0  0  0  0  0  0  0  0  0
    1.7540    4.8080   49.1620 C   0  0  0  0  0  0  0  0  0  0  0  0
    4.5300   11.2890   55.1320 C   0  0  0  0  0  0  0  0  0  0  0  0
    5.1900   11.8620   52.8960 C   0  0  0  0  0  0  0  0  0  0  0  0
    3.4470    5.4970   50.6700 C   0  0  0  0  0  0  0  0  0  0  0  0
    0.8320    5.3920   50.0140 C   0  0  0  0  0  0  0  0  0  0  0  0
    4.6680   10.9300   53.7770 C   0  0  0  0  0  0  0  0  0  0  0  0
    2.5090    5.9770   51.6030 C   0  0  0  0  0  0  0  0  0  0  0  0
    4.4190    8.5600   54.2270 C   0  0  0  0  0  0  0  0  0  0  0  0
    1.1710    5.9730   51.2320 C   0  0  0  0  0  0  0  0  0  0  0  0
    5.5480    8.4580   55.0270 C   0  0  0  0  0  0  0  0  0  0  0  0
    5.2330    8.1870   56.3280 C   0  0  0  0  0  0  0  0  0  0  0  0
    3.3460    7.9300   54.7540 C   0  0  0  0  0  0  0  0  0  0  0  0
    4.2790    9.6050   53.3020 C   0  0  0  0  0  0  0  0  0  0  0  0
    3.0100    6.3520   52.9250 C   0  0  0  0  0  0  0  0  0  0  0  0
    0.1300    6.6280   52.1110 C   0  0  0  0  0  0  0  0  0  0  0  0
    6.8210    8.6170   54.2690 C   0  0  0  0  0  0  0  0  0  0  0  0
    6.0850    8.0570   57.5700 C   0  0  0  0  0  0  0  0  0  0  0  0
    2.4500    7.2340   53.8860 N   0  0  0  0  0  0  0  0  0  0  0  0
    3.7600    9.3900   52.2320 O   0  0  0  0  0  0  0  0  0  0  0  0
    4.0270    5.8030   53.2710 O   0  0  0  0  0  0  0  0  0  0  0  0
    3.5290    7.9190   56.4680 S   0  0  0  0  0  0  0  0  0  0  0  0
  1  2  2  0
  1  3  1  0
  2  6  1  0
  3  7  2  0
  4  5  2  0
  4  8  1  0
  5  9  1  0
  6 10  2  0
  7 10  1  0
  8 11  2  0
  9 13  2  0
 10 17  1  0
 11 13  1  0
 11 18  1  0
 12 14  1  0
 12 16  2  0
 12 17  1  0
 13 19  1  0
 14 15  2  0
 14 20  1  0
 15 21  1  0
 15 25  1  0
 16 22  1  0
 16 25  1  0
 17 23  2  0
 18 22  1  0
 18 24  2  0
M  END
>  <washed_aromatic_smiles>  (882) 
Cc1ccccc1C(=O)Nc2c(c(c(s2)C)C)C(=O)c3ccccc3

>  <name>  (882) 
neg233743

$$$$
neg109560
     RDKit          3D

 29 31  0  0  0  0  0  0  0  0999 V2000
    5.4940   11.4040   53.4810 C   0  0  0  0  0  0  0  0  0  0  0  0
    3.3350    0.6880   55.6880 C   0  0  0  0  0  0  0  0  0  0  0  0
    5.4980   11.9340   54.7630 C   0  0  0  0  0  0  0  0  0  0  0  0
    3.5510   -0.6440   55.4220 C   0  0  0  0  0  0  0  0  0  0  0  0
    4.8110   10.2250   53.2180 C   0  0  0  0  0  0  0  0  0  0  0  0
    2.8430    1.4890   54.6860 C   0  0  0  0  0  0  0  0  0  0  0  0
    4.8190   11.2790   55.7830 C   0  0  0  0  0  0  0  0  0  0  0  0
    3.2040   -1.1630   54.1780 C   0  0  0  0  0  0  0  0  0  0  0  0
    3.0270    6.7360   50.5230 C   0  0  0  0  0  0  0  0  0  0  0  0
    2.6940    4.3510   50.5010 C   0  0  0  0  0  0  0  0  0  0  0  0
    3.1190    5.5350   52.5680 C   0  0  0  0  0  0  0  0  0  0  0  0
    4.1080    9.5450   54.2300 C   0  0  0  0  0  0  0  0  0  0  0  0
    2.6330    0.9980   53.3840 C   0  0  0  0  0  0  0  0  0  0  0  0
    2.9310    5.5270   49.8230 C   0  0  0  0  0  0  0  0  0  0  0  0
    4.1240   10.0950   55.5370 C   0  0  0  0  0  0  0  0  0  0  0  0
    2.7260   -0.3690   53.1570 C   0  0  0  0  0  0  0  0  0  0  0  0
    3.0280    6.7480   51.9110 C   0  0  0  0  0  0  0  0  0  0  0  0
    2.8580    4.3570   51.8670 C   0  0  0  0  0  0  0  0  0  0  0  0
    3.4100    8.2850   53.9000 C   0  0  0  0  0  0  0  0  0  0  0  0
    2.4360    1.9230   52.2870 C   0  0  0  0  0  0  0  0  0  0  0  0
    3.2110    5.4420   48.4180 C   0  0  0  0  0  0  0  0  0  0  0  0
    3.3950    9.4670   56.7150 C   0  0  0  0  0  0  0  0  0  0  0  0
    2.4180   -1.0070   51.8180 C   0  0  0  0  0  0  0  0  0  0  0  0
    3.1060    8.0230   52.5670 N   0  0  0  0  0  0  0  0  0  0  0  0
    2.9880    3.1490   52.5370 N   0  0  0  0  0  0  0  0  0  0  0  0
    3.0970    7.4540   54.7420 O   0  0  0  0  0  0  0  0  0  0  0  0
    1.7710    1.7140   51.2790 O   0  0  0  0  0  0  0  0  0  0  0  0
    3.4070    4.3140   47.8760 O   0  0  0  0  0  0  0  0  0  0  0  0
    3.3450    6.5120   47.8080 O   0  0  0  0  0  0  0  0  0  0  0  0
  1  3  2  0
  1  5  1  0
  2  4  2  0
  2  6  1  0
  3  7  1  0
  4  8  1  0
  5 12  2  0
  6 13  2  0
  7 15  2  0
  8 16  2  0
  9 14  2  0
  9 17  1  0
 10 14  1  0
 10 18  2  0
 11 17  2  0
 11 18  1  0
 12 15  1  0
 12 19  1  0
 13 16  1  0
 13 20  1  0
 14 21  1  0
 15 22  1  0
 16 23  1  0
 17 24  1  0
 18 25  1  0
 19 24  1  0
 19 26  2  0
 20 25  1  0
 20 27  2  0
 21 28  1  0
 21 29  2  0
M  CHG  1  28  -1
M  END
>  <washed_aromatic_smiles>  (883) 
Cc1ccccc1C(=O)Nc2cc(cc(c2)NC(=O)c3ccccc3C)C(=O)O

>  <name>  (883) 
neg109560

$$$$
neg95065
     RDKit          3D

 26 28  0  0  0  0  0  0  0  0999 V2000
    5.4020   10.1640   58.9600 C   0  0  0  0  0  0  0  0  0  0  0  0
    5.4360   11.5560   58.9680 C   0  0  0  0  0  0  0  0  0  0  0  0
    3.2490    8.3940   51.6990 C   0  0  0  0  0  0  0  0  0  0  0  0
    5.2580    9.4810   57.7680 C   0  0  0  0  0  0  0  0  0  0  0  0
    2.8060    1.9250   51.9870 C   0  0  0  0  0  0  0  0  0  0  0  0
    1.5820    2.2160   49.9140 C   0  0  0  0  0  0  0  0  0  0  0  0
    5.3600   12.2620   57.7730 C   0  0  0  0  0  0  0  0  0  0  0  0
    2.9330    7.0700   51.4910 C   0  0  0  0  0  0  0  0  0  0  0  0
    3.4630    8.9310   52.9460 C   0  0  0  0  0  0  0  0  0  0  0  0
    2.7710    0.5480   51.8180 C   0  0  0  0  0  0  0  0  0  0  0  0
    1.5280    0.8400   49.7490 C   0  0  0  0  0  0  0  0  0  0  0  0
    3.2990    6.6930   53.8440 C   0  0  0  0  0  0  0  0  0  0  0  0
    2.1900    2.7790   51.0510 C   0  0  0  0  0  0  0  0  0  0  0  0
    5.1690   10.1800   56.5640 C   0  0  0  0  0  0  0  0  0  0  0  0
    5.2290   11.5870   56.5640 C   0  0  0  0  0  0  0  0  0  0  0  0
    2.9820    6.1990   52.5660 C   0  0  0  0  0  0  0  0  0  0  0  0
    3.5300    8.0550   54.0160 C   0  0  0  0  0  0  0  0  0  0  0  0
    2.1190    0.0310   50.7080 C   0  0  0  0  0  0  0  0  0  0  0  0
    2.0970    4.2240   51.2690 C   0  0  0  0  0  0  0  0  0  0  0  0
    5.0400    9.4140   55.3440 C   0  0  0  0  0  0  0  0  0  0  0  0
    5.1860   12.4010   55.2820 C   0  0  0  0  0  0  0  0  0  0  0  0
    2.8460    4.8080   52.2930 N   0  0  0  0  0  0  0  0  0  0  0  0
    3.9500    8.5680   55.2520 N   0  0  0  0  0  0  0  0  0  0  0  0
    1.3130    4.9160   50.6290 O   0  0  0  0  0  0  0  0  0  0  0  0
    5.8490    9.4830   54.4210 O   0  0  0  0  0  0  0  0  0  0  0  0
    2.0650   -1.3040   50.5500 F   0  0  0  0  0  0  0  0  0  0  0  0
  1  2  2  0
  1  4  1  0
  2  7  1  0
  3  8  2  0
  3  9  1  0
  4 14  2  0
  5 10  2  0
  5 13  1  0
  6 11  1  0
  6 13  2  0
  7 15  2  0
  8 16  1  0
  9 17  2  0
 10 18  1  0
 11 18  2  0
 12 16  2  0
 12 17  1  0
 13 19  1  0
 14 15  1  0
 14 20  1  0
 15 21  1  0
 16 22  1  0
 17 23  1  0
 18 26  1  0
 19 22  1  0
 19 24  2  0
 20 23  1  0
 20 25  2  0
M  END
>  <washed_aromatic_smiles>  (884) 
Cc1ccccc1C(=O)Nc2cccc(c2)NC(=O)c3ccc(cc3)F

>  <name>  (884) 
neg95065

$$$$
neg200753
     RDKit          3D

 27 29  0  0  0  0  0  0  0  0999 V2000
    2.2850   -1.1200   52.0360 C   0  0  0  0  0  0  0  0  0  0  0  0
    5.9080   11.7930   53.0770 C   0  0  0  0  0  0  0  0  0  0  0  0
    4.5430   11.8850   52.9190 C   0  0  0  0  0  0  0  0  0  0  0  0
    3.3400    5.6910   48.6590 C   0  0  0  0  0  0  0  0  0  0  0  0
    2.7970   -0.3360   53.0620 C   0  0  0  0  0  0  0  0  0  0  0  0
    1.7670   -0.5350   50.8830 C   0  0  0  0  0  0  0  0  0  0  0  0
    3.2450    4.3390   48.3430 C   0  0  0  0  0  0  0  0  0  0  0  0
    6.4620   10.5620   53.3710 C   0  0  0  0  0  0  0  0  0  0  0  0
    3.7790   10.7270   52.9970 C   0  0  0  0  0  0  0  0  0  0  0  0
    3.0740    6.1360   49.9460 C   0  0  0  0  0  0  0  0  0  0  0  0
    2.8360    1.0420   52.9170 C   0  0  0  0  0  0  0  0  0  0  0  0
    1.7710    0.8450   50.7450 C   0  0  0  0  0  0  0  0  0  0  0  0
    2.8840    3.4210   49.3170 C   0  0  0  0  0  0  0  0  0  0  0  0
    5.6700    9.4670   53.6420 C   0  0  0  0  0  0  0  0  0  0  0  0
    4.3210    9.5180   53.3640 C   0  0  0  0  0  0  0  0  0  0  0  0
    2.6730    5.2270   50.9150 C   0  0  0  0  0  0  0  0  0  0  0  0
    2.3550    1.6210   51.7460 C   0  0  0  0  0  0  0  0  0  0  0  0
    2.6390    3.8610   50.6160 C   0  0  0  0  0  0  0  0  0  0  0  0
    1.2630    6.5950   52.4050 C   0  0  0  0  0  0  0  0  0  0  0  0
    6.2980    8.2740   54.2660 C   0  0  0  0  0  0  0  0  0  0  0  0
    2.2520    8.8240   55.3450 C   0  0  0  0  0  0  0  0  0  0  0  0
    3.4360    8.2970   53.3440 C   0  0  0  0  0  0  0  0  0  0  0  0
    1.2080    7.3780   53.7140 C   0  0  0  0  0  0  0  0  0  0  0  0
    2.3250    5.7350   52.1920 N   0  0  0  0  0  0  0  0  0  0  0  0
    2.1120    8.5310   53.9110 N   0  0  0  0  0  0  0  0  0  0  0  0
    0.3800    6.6750   51.5750 O   0  0  0  0  0  0  0  0  0  0  0  0
    2.4650    2.9860   51.6580 O   0  0  0  0  0  0  0  0  0  0  0  0
  1  5  2  0
  1  6  1  0
  2  3  2  0
  2  8  1  0
  3  9  1  0
  4  7  2  0
  4 10  1  0
  5 11  1  0
  6 12  2  0
  7 13  1  0
  8 14  2  0
  9 15  2  0
 10 16  2  0
 11 17  2  0
 12 17  1  0
 13 18  2  0
 14 15  1  0
 14 20  1  0
 15 22  1  0
 16 18  1  0
 16 24  1  0
 17 27  1  0
 18 27  1  0
 19 23  1  0
 19 24  1  0
 19 26  2  0
 21 25  1  0
 22 25  1  0
 23 25  1  0
M  END
>  <washed_aromatic_smiles>  (885) 
Cc1ccccc1CN(C)CC(=O)Nc2ccccc2Oc3ccccc3

>  <name>  (885) 
neg200753

$$$$
neg225608
     RDKit          3D

 26 28  0  0  0  0  0  0  0  0999 V2000
    0.7270    0.3780   46.9790 C   0  0  0  0  0  0  0  0  0  0  0  0
    0.9590   -0.4930   48.0380 C   0  0  0  0  0  0  0  0  0  0  0  0
    0.6040    1.7350   47.2160 C   0  0  0  0  0  0  0  0  0  0  0  0
    5.4710   11.7610   59.0020 C   0  0  0  0  0  0  0  0  0  0  0  0
    5.4160   10.3760   58.8950 C   0  0  0  0  0  0  0  0  0  0  0  0
    3.4440    7.0000   53.1730 C   0  0  0  0  0  0  0  0  0  0  0  0
    1.3690    8.1210   52.7130 C   0  0  0  0  0  0  0  0  0  0  0  0
    1.0980   -0.0040   49.3280 C   0  0  0  0  0  0  0  0  0  0  0  0
    0.8020    2.2340   48.4940 C   0  0  0  0  0  0  0  0  0  0  0  0
    5.4220   12.5500   57.8590 C   0  0  0  0  0  0  0  0  0  0  0  0
    5.3030    9.7830   57.6500 C   0  0  0  0  0  0  0  0  0  0  0  0
    3.0070    5.8840   52.4970 C   0  0  0  0  0  0  0  0  0  0  0  0
    0.9170    6.9810   52.0550 C   0  0  0  0  0  0  0  0  0  0  0  0
    2.6690    8.1500   53.2200 C   0  0  0  0  0  0  0  0  0  0  0  0
    1.0600    1.3660   49.5540 C   0  0  0  0  0  0  0  0  0  0  0  0
    1.7590    5.8810   51.8880 C   0  0  0  0  0  0  0  0  0  0  0  0
    5.2950   11.9640   56.6030 C   0  0  0  0  0  0  0  0  0  0  0  0
    5.2510   10.5680   56.5040 C   0  0  0  0  0  0  0  0  0  0  0  0
    3.3180    9.3400   53.7150 C   0  0  0  0  0  0  0  0  0  0  0  0
    5.2240   12.8580   55.3800 C   0  0  0  0  0  0  0  0  0  0  0  0
    5.1730    9.8530   55.1840 C   0  0  0  0  0  0  0  0  0  0  0  0
    1.3160    1.8850   50.9410 C   0  0  0  0  0  0  0  0  0  0  0  0
    1.3050    4.7170   51.0430 C   0  0  0  0  0  0  0  0  0  0  0  0
    3.8670    9.2720   54.9570 N   0  0  0  0  0  0  0  0  0  0  0  0
    3.5160   10.3310   53.0310 O   0  0  0  0  0  0  0  0  0  0  0  0
    2.4660    3.3010   50.9420 S   0  0  0  0  0  0  0  0  0  0  0  0
  1  2  2  0
  1  3  1  0
  2  8  1  0
  3  9  2  0
  4  5  2  0
  4 10  1  0
  5 11  1  0
  6 12  2  0
  6 14  1  0
  7 13  1  0
  7 14  2  0
  8 15  2  0
  9 15  1  0
 10 17  2  0
 11 18  2  0
 12 16  1  0
 13 16  2  0
 14 19  1  0
 15 22  1  0
 16 23  1  0
 17 18  1  0
 17 20  1  0
 18 21  1  0
 19 24  1  0
 19 25  2  0
 21 24  1  0
 22 26  1  0
 23 26  1  0
M  END
>  <washed_aromatic_smiles>  (886) 
Cc1ccccc1CNC(=O)c2ccc(cc2)CSCc3ccccc3

>  <name>  (886) 
neg225608

$$$$
neg110801
     RDKit          3D

 28 30  0  0  0  0  0  0  0  0999 V2000
    0.2700    2.0460   47.2030 C   0  0  0  0  0  0  0  0  0  0  0  0
    3.2330    0.8260   55.7060 C   0  0  0  0  0  0  0  0  0  0  0  0
    1.9840    8.4450   52.9020 C   0  0  0  0  0  0  0  0  0  0  0  0
    0.9190    7.6270   53.2490 C   0  0  0  0  0  0  0  0  0  0  0  0
    3.2620   -0.4620   55.1970 C   0  0  0  0  0  0  0  0  0  0  0  0
    1.3420    2.6090   47.8750 C   0  0  0  0  0  0  0  0  0  0  0  0
   -0.1930    0.7970   47.5750 C   0  0  0  0  0  0  0  0  0  0  0  0
    2.8780    1.8710   54.8830 C   0  0  0  0  0  0  0  0  0  0  0  0
    2.8530    8.0520   51.8910 C   0  0  0  0  0  0  0  0  0  0  0  0
    0.7900    6.3810   52.6490 C   0  0  0  0  0  0  0  0  0  0  0  0
    2.7840   -0.7210   53.9190 C   0  0  0  0  0  0  0  0  0  0  0  0
    1.9630    1.9040   48.8990 C   0  0  0  0  0  0  0  0  0  0  0  0
    0.4030    0.1100   48.6200 C   0  0  0  0  0  0  0  0  0  0  0  0
    2.6630    1.6520   53.5150 C   0  0  0  0  0  0  0  0  0  0  0  0
    2.6760    6.8330   51.2310 C   0  0  0  0  0  0  0  0  0  0  0  0
    1.7260    5.9510   51.7100 C   0  0  0  0  0  0  0  0  0  0  0  0
    2.3310    0.3460   53.1500 C   0  0  0  0  0  0  0  0  0  0  0  0
    1.4880    0.6520   49.3120 C   0  0  0  0  0  0  0  0  0  0  0  0
    2.9750    2.5840   52.4220 C   0  0  0  0  0  0  0  0  0  0  0  0
    3.4290    6.4640   49.9600 C   0  0  0  0  0  0  0  0  0  0  0  0
    0.2660    0.8570   51.9000 C   0  0  0  0  0  0  0  0  0  0  0  0
    1.8740    4.4990   51.3570 C   0  0  0  0  0  0  0  0  0  0  0  0
    2.7610    3.9210   52.3720 N   0  0  0  0  0  0  0  0  0  0  0  0
    1.5090    0.1120   52.0480 N   0  0  0  0  0  0  0  0  0  0  0  0
    3.5150    2.1840   51.4320 O   0  0  0  0  0  0  0  0  0  0  0  0
    1.8020   -1.6860   50.3780 O   0  0  0  0  0  0  0  0  0  0  0  0
    3.6350   -0.2240   50.6990 O   0  0  0  0  0  0  0  0  0  0  0  0
    2.2240   -0.3830   50.6270 S   0  0  0  0  0  0  0  0  0  0  0  0
  1  6  2  0
  1  7  1  0
  2  5  2  0
  2  8  1  0
  3  4  2  0
  3  9  1  0
  4 10  1  0
  5 11  1  0
  6 12  1  0
  7 13  2  0
  8 14  2  0
  9 15  2  0
 10 16  2  0
 11 17  2  0
 12 18  2  0
 13 18  1  0
 14 17  1  0
 14 19  1  0
 15 16  1  0
 15 20  1  0
 16 22  1  0
 17 24  1  0
 18 28  1  0
 19 23  1  0
 19 25  2  0
 21 24  1  0
 22 23  1  0
 24 28  1  0
 26 28  2  0
 27 28  2  0
M  END
>  <washed_aromatic_smiles>  (887) 
Cc1ccccc1CNC(=O)c2ccccc2N(C)S(=O)(=O)c3ccccc3

>  <name>  (887) 
neg110801

$$$$
neg194770
     RDKit          3D

 27 29  0  0  0  0  0  0  0  0999 V2000
    0.7500    0.5880   47.5840 C   0  0  0  0  0  0  0  0  0  0  0  0
    0.7990    1.9050   47.1690 C   0  0  0  0  0  0  0  0  0  0  0  0
    0.9640    0.2640   48.9150 C   0  0  0  0  0  0  0  0  0  0  0  0
    1.1160    2.9100   48.0690 C   0  0  0  0  0  0  0  0  0  0  0  0
    3.4630    7.2160   53.6880 C   0  0  0  0  0  0  0  0  0  0  0  0
    1.0730    7.5940   53.6640 C   0  0  0  0  0  0  0  0  0  0  0  0
    3.6070    8.1040   54.7390 C   0  0  0  0  0  0  0  0  0  0  0  0
    1.2090    8.4520   54.7440 C   0  0  0  0  0  0  0  0  0  0  0  0
    1.2580    1.2510   49.8500 C   0  0  0  0  0  0  0  0  0  0  0  0
    2.1980    6.9430   53.1500 C   0  0  0  0  0  0  0  0  0  0  0  0
    1.3360    2.6000   49.4210 C   0  0  0  0  0  0  0  0  0  0  0  0
    2.4760    8.7200   55.2750 C   0  0  0  0  0  0  0  0  0  0  0  0
    4.1530   11.3630   56.9460 C   0  0  0  0  0  0  0  0  0  0  0  0
    4.9900   12.0740   57.7490 C   0  0  0  0  0  0  0  0  0  0  0  0
    3.7610    9.9600   56.9950 C   0  0  0  0  0  0  0  0  0  0  0  0
    5.6870   11.6700   58.9520 C   0  0  0  0  0  0  0  0  0  0  0  0
    3.1140    5.0280   51.8310 C   0  0  0  0  0  0  0  0  0  0  0  0
    0.8670    5.8560   51.2950 C   0  0  0  0  0  0  0  0  0  0  0  0
    2.6610    3.6480   51.2760 C   0  0  0  0  0  0  0  0  0  0  0  0
    1.1510    5.0500   50.0130 C   0  0  0  0  0  0  0  0  0  0  0  0
    1.4280    0.7970   51.2880 C   0  0  0  0  0  0  0  0  0  0  0  0
    2.0530    5.9790   52.1250 N   0  0  0  0  0  0  0  0  0  0  0  0
    1.5440    3.6730   50.3390 N   0  0  0  0  0  0  0  0  0  0  0  0
    2.5940    9.6680   56.3280 N   0  0  0  0  0  0  0  0  0  0  0  0
    4.3840    9.0320   57.5030 O   0  0  0  0  0  0  0  0  0  0  0  0
    6.2940   12.5700   59.5950 O   0  0  0  0  0  0  0  0  0  0  0  0
    5.7430   10.4740   59.3200 O   0  0  0  0  0  0  0  0  0  0  0  0
  1  2  2  0
  1  3  1  0
  2  4  1  0
  3  9  2  0
  4 11  2  0
  5  7  2  0
  5 10  1  0
  6  8  1  0
  6 10  2  0
  7 12  1  0
  8 12  2  0
  9 11  1  0
  9 21  1  0
 10 22  1  0
 11 23  1  0
 12 24  1  0
 13 14  2  0
 13 15  1  0
 14 16  1  0
 15 24  1  0
 15 25  2  0
 16 26  1  0
 16 27  2  0
 17 19  1  0
 17 22  1  0
 18 20  1  0
 18 22  1  0
 19 23  1  0
 20 23  1  0
M  CHG  1  26  -1
M  END
>  <washed_aromatic_smiles>  (888) 
Cc1ccccc1N2CCN(CC2)c3ccc(cc3)NC(=O)/C=C\C(=O)O

>  <name>  (888) 
neg194770

$$$$
neg328331
     RDKit          3D

 26 29  0  0  0  0  0  0  0  0999 V2000
    2.5300    9.6890   56.0490 C   0  0  0  0  0  0  0  0  0  0  0  0
    1.9890    8.9450   55.2880 C   0  0  0  0  0  0  0  0  0  0  0  0
    5.7920    7.5500   57.4650 C   0  0  0  0  0  0  0  0  0  0  0  0
    5.7860   11.4820   52.9020 C   0  0  0  0  0  0  0  0  0  0  0  0
    5.6180    8.3210   58.6290 C   0  0  0  0  0  0  0  0  0  0  0  0
    5.1910   12.6550   53.4160 C   0  0  0  0  0  0  0  0  0  0  0  0
    5.7280    8.1520   56.2090 C   0  0  0  0  0  0  0  0  0  0  0  0
    5.8990   10.3460   53.6860 C   0  0  0  0  0  0  0  0  0  0  0  0
    5.2890    9.6610   58.5200 C   0  0  0  0  0  0  0  0  0  0  0  0
    4.6940   12.6890   54.7120 C   0  0  0  0  0  0  0  0  0  0  0  0
    5.5160    9.5040   56.1010 C   0  0  0  0  0  0  0  0  0  0  0  0
    5.4300   10.3900   55.0010 C   0  0  0  0  0  0  0  0  0  0  0  0
    5.1520   10.1890   57.2320 C   0  0  0  0  0  0  0  0  0  0  0  0
    4.8120   11.5290   55.4850 C   0  0  0  0  0  0  0  0  0  0  0  0
    0.5780    6.5460   52.7210 C   0  0  0  0  0  0  0  0  0  0  0  0
    2.6300    7.7710   52.5350 C   0  0  0  0  0  0  0  0  0  0  0  0
    1.0600    5.4880   51.7400 C   0  0  0  0  0  0  0  0  0  0  0  0
    3.0520    6.7910   51.4200 C   0  0  0  0  0  0  0  0  0  0  0  0
    3.0250   10.7820   56.9510 C   0  0  0  0  0  0  0  0  0  0  0  0
    1.0960    8.2190   54.3460 C   0  0  0  0  0  0  0  0  0  0  0  0
    2.5160    4.8830   49.8740 C   0  0  0  0  0  0  0  0  0  0  0  0
    3.6780    5.2360   48.9450 C   0  0  0  0  0  0  0  0  0  0  0  0
    4.4040   11.2620   56.8020 N   0  0  0  0  0  0  0  0  0  0  0  0
    1.6750    7.1840   53.4790 N   0  0  0  0  0  0  0  0  0  0  0  0
    1.9980    5.9860   50.7490 N   0  0  0  0  0  0  0  0  0  0  0  0
    3.5410    6.5150   48.3770 O   0  0  0  0  0  0  0  0  0  0  0  0
  1  2  3  0
  1 19  1  0
  2 20  1  0
  3  5  2  0
  3  7  1  0
  4  6  2  0
  4  8  1  0
  5  9  1  0
  6 10  1  0
  7 11  2  0
  8 12  2  0
  9 13  2  0
 10 14  2  0
 11 12  1  0
 11 13  1  0
 12 14  1  0
 13 23  1  0
 14 23  1  0
 15 17  1  0
 15 24  1  0
 16 18  1  0
 16 24  1  0
 17 25  1  0
 18 25  1  0
 19 23  1  0
 20 24  1  0
 21 22  1  0
 21 25  1  0
 22 26  1  0
M  CHG  1  25   1
M  END
>  <washed_aromatic_smiles>  (889) 
c1ccc2c(c1)c3ccccc3n2CC#CCN4CCN(CC4)CCO

>  <name>  (889) 
neg328331

$$$$
neg232231
     RDKit          3D

 29 33  0  0  0  0  0  0  0  0999 V2000
    1.8040    4.7720   49.8310 C   0  0  0  0  0  0  0  0  0  0  0  0
    3.0540    4.8400   50.4440 C   0  0  0  0  0  0  0  0  0  0  0  0
    5.6870   12.5960   53.1600 C   0  0  0  0  0  0  0  0  0  0  0  0
    5.9120    8.3140   59.5960 C   0  0  0  0  0  0  0  0  0  0  0  0
    6.1080   11.3200   52.7920 C   0  0  0  0  0  0  0  0  0  0  0  0
    5.7660    7.3460   58.6200 C   0  0  0  0  0  0  0  0  0  0  0  0
    0.1300    8.0120   53.0380 C   0  0  0  0  0  0  0  0  0  0  0  0
    0.7870    5.5310   50.3280 C   0  0  0  0  0  0  0  0  0  0  0  0
    3.2750    5.7240   51.4730 C   0  0  0  0  0  0  0  0  0  0  0  0
   -0.1120    6.9630   52.1780 C   0  0  0  0  0  0  0  0  0  0  0  0
    5.1400   12.8190   54.4130 C   0  0  0  0  0  0  0  0  0  0  0  0
    5.7610    9.6620   59.2660 C   0  0  0  0  0  0  0  0  0  0  0  0
    5.9310   10.2540   53.6640 C   0  0  0  0  0  0  0  0  0  0  0  0
    5.4590    7.7330   57.3310 C   0  0  0  0  0  0  0  0  0  0  0  0
    1.4180    8.4930   53.2010 C   0  0  0  0  0  0  0  0  0  0  0  0
    0.9510    6.3510   51.4680 C   0  0  0  0  0  0  0  0  0  0  0  0
    2.2590    6.6220   51.8760 C   0  0  0  0  0  0  0  0  0  0  0  0
    4.9450   11.7590   55.2900 C   0  0  0  0  0  0  0  0  0  0  0  0
    5.4210   10.0760   57.9900 C   0  0  0  0  0  0  0  0  0  0  0  0
    5.2910   10.4730   54.8890 C   0  0  0  0  0  0  0  0  0  0  0  0
    5.2900    9.0870   57.0170 C   0  0  0  0  0  0  0  0  0  0  0  0
    2.4520    7.7990   52.6440 C   0  0  0  0  0  0  0  0  0  0  0  0
    3.8170    8.6400   55.2770 C   0  0  0  0  0  0  0  0  0  0  0  0
    4.3310   12.0100   56.6330 C   0  0  0  0  0  0  0  0  0  0  0  0
    5.2060   11.5710   57.7950 C   0  0  0  0  0  0  0  0  0  0  0  0
    4.1170    7.7270   54.1330 C   0  0  0  0  0  0  0  0  0  0  0  0
    4.8740    9.3830   55.7040 N   0  0  0  0  0  0  0  0  0  0  0  0
    2.7750    8.6620   55.9060 O   0  0  0  0  0  0  0  0  0  0  0  0
    3.6640    8.2510   52.9140 O   0  0  0  0  0  0  0  0  0  0  0  0
  1  2  2  0
  1  8  1  0
  2  9  1  0
  3  5  2  0
  3 11  1  0
  4  6  2  0
  4 12  1  0
  5 13  1  0
  6 14  1  0
  7 10  2  0
  7 15  1  0
  8 16  2  0
  9 17  2  0
 10 16  1  0
 11 18  2  0
 12 19  2  0
 13 20  2  0
 14 21  2  0
 15 22  2  0
 16 17  1  0
 17 22  1  0
 18 20  1  0
 18 24  1  0
 19 21  1  0
 19 25  1  0
 20 27  1  0
 21 27  1  0
 22 29  1  0
 23 26  1  0
 23 27  1  0
 23 28  2  0
 24 25  1  0
 26 29  1  0
M  END
>  <washed_aromatic_smiles>  (890) 
c1ccc2c(c1)cccc2OCC(=O)N3c4ccccc4CCc5c3cccc5

>  <name>  (890) 
neg232231

$$$$
neg69778
     RDKit          3D

 26 29  0  0  0  0  0  0  0  0999 V2000
    5.6430   12.4390   53.4100 C   0  0  0  0  0  0  0  0  0  0  0  0
    5.5390   11.2870   52.6350 C   0  0  0  0  0  0  0  0  0  0  0  0
    5.2200   11.2770   58.8570 C   0  0  0  0  0  0  0  0  0  0  0  0
    5.3200   12.3950   54.7560 C   0  0  0  0  0  0  0  0  0  0  0  0
    4.9870   10.1270   53.1520 C   0  0  0  0  0  0  0  0  0  0  0  0
    1.8490    4.6320   49.9930 C   0  0  0  0  0  0  0  0  0  0  0  0
    2.7000    3.0670   51.6440 C   0  0  0  0  0  0  0  0  0  0  0  0
    1.5940    3.5810   49.1220 C   0  0  0  0  0  0  0  0  0  0  0  0
    2.4270    2.0100   50.7830 C   0  0  0  0  0  0  0  0  0  0  0  0
    4.9370    9.9340   58.6140 C   0  0  0  0  0  0  0  0  0  0  0  0
    5.1470   11.9430   57.6730 C   0  0  0  0  0  0  0  0  0  0  0  0
    4.9000   11.1840   55.3040 C   0  0  0  0  0  0  0  0  0  0  0  0
    4.6610   10.0530   54.5040 C   0  0  0  0  0  0  0  0  0  0  0  0
    2.3940    4.3810   51.2590 C   0  0  0  0  0  0  0  0  0  0  0  0
    1.8640    2.2850   49.5420 C   0  0  0  0  0  0  0  0  0  0  0  0
    4.6700    9.7920   57.2770 C   0  0  0  0  0  0  0  0  0  0  0  0
    4.3070    8.6520   56.4640 C   0  0  0  0  0  0  0  0  0  0  0  0
    2.7440    6.7800   52.0070 C   0  0  0  0  0  0  0  0  0  0  0  0
    2.6550    7.7500   53.1920 C   0  0  0  0  0  0  0  0  0  0  0  0
    3.8250    7.6400   54.2000 C   0  0  0  0  0  0  0  0  0  0  0  0
    4.8370   11.0280   56.7040 N   0  0  0  0  0  0  0  0  0  0  0  0
    4.1680    8.8240   55.0760 N   0  0  0  0  0  0  0  0  0  0  0  0
    2.5850    5.4270   52.2250 N   0  0  0  0  0  0  0  0  0  0  0  0
    4.1500    7.5370   56.9520 O   0  0  0  0  0  0  0  0  0  0  0  0
    2.9960    7.1630   50.8890 O   0  0  0  0  0  0  0  0  0  0  0  0
    1.5400    1.2630   48.7270 F   0  0  0  0  0  0  0  0  0  0  0  0
  1  2  2  0
  1  4  1  0
  2  5  1  0
  3 10  1  0
  3 11  2  0
  4 12  2  0
  5 13  2  0
  6  8  2  0
  6 14  1  0
  7  9  1  0
  7 14  2  0
  8 15  1  0
  9 15  2  0
 10 16  2  0
 11 21  1  0
 12 13  1  0
 12 21  1  0
 13 22  1  0
 14 23  1  0
 15 26  1  0
 16 17  1  0
 16 21  1  0
 17 22  1  0
 17 24  2  0
 18 19  1  0
 18 23  1  0
 18 25  2  0
 19 20  1  0
 20 22  1  0
M  END
>  <washed_aromatic_smiles>  (891) 
c1ccc2c(c1)n3cccc3c(=O)n2CCC(=O)Nc4ccc(cc4)F

>  <name>  (891) 
neg69778

$$$$
neg241591
     RDKit          3D

 38 42  0  0  0  0  0  0  0  0999 V2000
    5.7370   12.7160   58.6100 C   0  0  0  0  0  0  0  0  0  0  0  0
    3.0510   -0.2200   55.3720 C   0  0  0  0  0  0  0  0  0  0  0  0
    5.4940   13.2270   57.3220 C   0  0  0  0  0  0  0  0  0  0  0  0
    1.8890   -0.9140   55.0800 C   0  0  0  0  0  0  0  0  0  0  0  0
    3.7160    4.5030   48.7250 C   0  0  0  0  0  0  0  0  0  0  0  0
    5.5350   11.3840   58.8680 C   0  0  0  0  0  0  0  0  0  0  0  0
    3.4370    0.7490   54.5260 C   0  0  0  0  0  0  0  0  0  0  0  0
    5.0770   12.3980   56.3110 C   0  0  0  0  0  0  0  0  0  0  0  0
    1.1910   -0.7120   53.9350 C   0  0  0  0  0  0  0  0  0  0  0  0
    4.9100    9.1180   58.1040 C   0  0  0  0  0  0  0  0  0  0  0  0
    3.3520    1.7290   52.2590 C   0  0  0  0  0  0  0  0  0  0  0  0
    4.4960    8.2770   57.1020 C   0  0  0  0  0  0  0  0  0  0  0  0
    2.6900    1.8880   51.0750 C   0  0  0  0  0  0  0  0  0  0  0  0
    3.1670    5.2040   49.7790 C   0  0  0  0  0  0  0  0  0  0  0  0
    2.9000    3.7440   47.9110 C   0  0  0  0  0  0  0  0  0  0  0  0
    4.4660   10.1320   55.5270 C   0  0  0  0  0  0  0  0  0  0  0  0
    0.8840    0.4660   51.8560 C   0  0  0  0  0  0  0  0  0  0  0  0
    5.1010   10.5020   57.8530 C   0  0  0  0  0  0  0  0  0  0  0  0
    2.7960    0.9470   53.2870 C   0  0  0  0  0  0  0  0  0  0  0  0
    4.8770   11.0140   56.5510 C   0  0  0  0  0  0  0  0  0  0  0  0
    1.6010    0.2540   53.0300 C   0  0  0  0  0  0  0  0  0  0  0  0
    4.2570    8.7960   55.8100 C   0  0  0  0  0  0  0  0  0  0  0  0
    1.4710    1.2160   50.8830 C   0  0  0  0  0  0  0  0  0  0  0  0
    1.7990    5.1330   49.9850 C   0  0  0  0  0  0  0  0  0  0  0  0
    1.5440    3.6710   48.1790 C   0  0  0  0  0  0  0  0  0  0  0  0
    3.1020    8.1600   53.6970 C   0  0  0  0  0  0  0  0  0  0  0  0
    0.9230    0.0430   48.8870 C   0  0  0  0  0  0  0  0  0  0  0  0
    1.0980    6.0570   50.9580 C   0  0  0  0  0  0  0  0  0  0  0  0
    0.5230    2.8720   47.3710 C   0  0  0  0  0  0  0  0  0  0  0  0
    3.0260    7.0670   52.6690 C   0  0  0  0  0  0  0  0  0  0  0  0
    0.4950    0.1000   47.4540 C   0  0  0  0  0  0  0  0  0  0  0  0
    1.0430    4.3740   49.1950 N   0  0  0  0  0  0  0  0  0  0  0  0
    3.8360    7.8770   54.8230 N   0  0  0  0  0  0  0  0  0  0  0  0
    0.9230    1.1820   49.6290 N   0  0  0  0  0  0  0  0  0  0  0  0
    2.5430    9.2270   53.5490 O   0  0  0  0  0  0  0  0  0  0  0  0
    1.2510   -1.0150   49.3920 O   0  0  0  0  0  0  0  0  0  0  0  0
    1.4540    6.1640   52.7020 S   0  0  0  0  0  0  0  0  0  0  0  0
    0.8860    1.4600   46.3230 S   0  0  0  0  0  0  0  0  0  0  0  0
  1  3  2  0
  1  6  1  0
  2  4  2  0
  2  7  1  0
  3  8  1  0
  4  9  1  0
  5 14  2  0
  5 15  1  0
  6 18  2  0
  7 19  2  0
  8 20  2  0
  9 21  2  0
 10 12  2  0
 10 18  1  0
 11 13  2  0
 11 19  1  0
 12 22  1  0
 13 23  1  0
 14 24  1  0
 15 25  2  0
 16 20  1  0
 16 22  2  0
 17 21  1  0
 17 23  2  0
 18 20  1  0
 19 21  1  0
 22 33  1  0
 23 34  1  0
 24 28  1  0
 24 32  2  0
 25 29  1  0
 25 32  1  0
 26 30  1  0
 26 33  1  0
 26 35  2  0
 27 31  1  0
 27 34  1  0
 27 36  2  0
 28 37  1  0
 29 38  1  0
 30 37  1  0
 31 38  1  0
M  END
>  <washed_aromatic_smiles>  (892) 
c1ccc2cc(ccc2c1)NC(=O)CSCc3cccc(n3)CSCC(=O)Nc4ccc5ccccc5c4

>  <name>  (892) 
neg241591

$$$$
neg31428
     RDKit          3D

 28 30  0  0  0  0  0  0  0  0999 V2000
    1.6530    3.9830   48.4490 C   0  0  0  0  0  0  0  0  0  0  0  0
    1.7440    3.3990   50.7820 C   0  0  0  0  0  0  0  0  0  0  0  0
    3.8510    9.8260   53.6880 C   0  0  0  0  0  0  0  0  0  0  0  0
    3.2050    7.8000   54.8640 C   0  0  0  0  0  0  0  0  0  0  0  0
    4.6740   10.1820   54.7530 C   0  0  0  0  0  0  0  0  0  0  0  0
    4.0220    8.1510   55.9330 C   0  0  0  0  0  0  0  0  0  0  0  0
    1.2510    2.6800   48.1490 C   0  0  0  0  0  0  0  0  0  0  0  0
    1.2110    2.1580   50.4950 C   0  0  0  0  0  0  0  0  0  0  0  0
    3.3330    0.5020   53.1310 C   0  0  0  0  0  0  0  0  0  0  0  0
    3.6830    0.9670   51.9050 C   0  0  0  0  0  0  0  0  0  0  0  0
    2.6690   -0.7490   53.2280 C   0  0  0  0  0  0  0  0  0  0  0  0
    1.9030    4.3290   49.7750 C   0  0  0  0  0  0  0  0  0  0  0  0
    3.1040    8.6480   53.7650 C   0  0  0  0  0  0  0  0  0  0  0  0
    4.7320    9.3440   55.8640 C   0  0  0  0  0  0  0  0  0  0  0  0
    1.0380    1.7460   49.1730 C   0  0  0  0  0  0  0  0  0  0  0  0
    2.2430   -0.6840   50.9400 C   0  0  0  0  0  0  0  0  0  0  0  0
    1.8750    6.2710   51.2890 C   0  0  0  0  0  0  0  0  0  0  0  0
    2.8130    7.3130   51.8340 C   0  0  0  0  0  0  0  0  0  0  0  0
    3.2370    0.2860   50.7960 N   0  0  0  0  0  0  0  0  0  0  0  0
    2.2000   -1.3370   52.1900 N   0  0  0  0  0  0  0  0  0  0  0  0
    2.3370    5.6090   50.1640 N   0  0  0  0  0  0  0  0  0  0  0  0
    1.2910   -0.8390   50.0880 N   0  0  0  0  0  0  0  0  0  0  0  0
    0.8430    5.9400   51.8480 O   0  0  0  0  0  0  0  0  0  0  0  0
    1.2570   -0.3450   47.5980 O   0  0  0  0  0  0  0  0  0  0  0  0
   -0.7750   -0.1080   48.8690 O   0  0  0  0  0  0  0  0  0  0  0  0
    2.2580    8.2840   52.7470 O   0  0  0  0  0  0  0  0  0  0  0  0
    5.4970    9.6980   56.9180 F   0  0  0  0  0  0  0  0  0  0  0  0
    0.6420    0.0200   48.8300 S   0  0  0  0  0  0  0  0  0  0  0  0
  1  7  2  0
  1 12  1  0
  2  8  1  0
  2 12  2  0
  3  5  2  0
  3 13  1  0
  4  6  1  0
  4 13  2  0
  5 14  1  0
  6 14  2  0
  7 15  1  0
  8 15  2  0
  9 10  2  0
  9 11  1  0
 10 19  1  0
 11 20  2  0
 12 21  1  0
 13 26  1  0
 14 27  1  0
 15 28  1  0
 16 19  1  0
 16 20  1  0
 16 22  2  0
 17 18  1  0
 17 21  1  0
 17 23  2  0
 18 26  1  0
 22 28  1  0
 24 28  2  0
 25 28  2  0
M  END
>  <washed_aromatic_smiles>  (893) 
c1cnc(nc1)NS(=O)(=O)c2ccc(cc2)NC(=O)COc3ccc(cc3)F

>  <name>  (893) 
neg31428

$$$$
neg105266
     RDKit          3D

 27 29  0  0  0  0  0  0  0  0999 V2000
    1.9370    4.4640   49.3220 C   0  0  0  0  0  0  0  0  0  0  0  0
    1.9680    2.5100   50.7130 C   0  0  0  0  0  0  0  0  0  0  0  0
    4.5610    8.1780   54.5040 C   0  0  0  0  0  0  0  0  0  0  0  0
    2.9220    8.9090   52.9180 C   0  0  0  0  0  0  0  0  0  0  0  0
    5.1560    9.4260   54.4930 C   0  0  0  0  0  0  0  0  0  0  0  0
    3.4460   10.1780   53.0310 C   0  0  0  0  0  0  0  0  0  0  0  0
    1.4720    3.6960   48.2600 C   0  0  0  0  0  0  0  0  0  0  0  0
    1.5080    1.7380   49.6510 C   0  0  0  0  0  0  0  0  0  0  0  0
    4.5090   11.1150   58.5150 C   0  0  0  0  0  0  0  0  0  0  0  0
    5.5030   12.0420   58.5310 C   0  0  0  0  0  0  0  0  0  0  0  0
    3.7340   10.9240   57.3420 C   0  0  0  0  0  0  0  0  0  0  0  0
    2.1430    3.8890   50.5730 C   0  0  0  0  0  0  0  0  0  0  0  0
    3.5690    7.8740   53.5670 C   0  0  0  0  0  0  0  0  0  0  0  0
    4.6270   10.4410   53.7070 C   0  0  0  0  0  0  0  0  0  0  0  0
    1.2190    2.3390   48.4300 C   0  0  0  0  0  0  0  0  0  0  0  0
    5.2140   12.2740   56.1650 C   0  0  0  0  0  0  0  0  0  0  0  0
    2.9510    6.1010   51.9160 C   0  0  0  0  0  0  0  0  0  0  0  0
    2.3870    4.7070   51.8370 C   0  0  0  0  0  0  0  0  0  0  0  0
    5.8000   12.6860   57.3550 N   0  0  0  0  0  0  0  0  0  0  0  0
    4.0470   11.5000   56.2510 N   0  0  0  0  0  0  0  0  0  0  0  0
    3.2480    6.5400   53.2130 N   0  0  0  0  0  0  0  0  0  0  0  0
    5.8320   12.5380   55.0840 N   0  0  0  0  0  0  0  0  0  0  0  0
    3.0310    6.8320   50.9520 O   0  0  0  0  0  0  0  0  0  0  0  0
    4.3580   12.9800   53.1240 O   0  0  0  0  0  0  0  0  0  0  0  0
    6.5020   11.9400   52.7500 O   0  0  0  0  0  0  0  0  0  0  0  0
    5.3580   12.0770   53.5820 S   0  0  0  0  0  0  0  0  0  0  0  0
    0.4320    1.3290   47.0330 Br  0  0  0  0  0  0  0  0  0  0  0  0
  1  7  2  0
  1 12  1  0
  2  8  1  0
  2 12  2  0
  3  5  2  0
  3 13  1  0
  4  6  1  0
  4 13  2  0
  5 14  1  0
  6 14  2  0
  7 15  1  0
  8 15  2  0
  9 10  2  0
  9 11  1  0
 10 19  1  0
 11 20  2  0
 12 18  1  0
 13 21  1  0
 14 26  1  0
 15 27  1  0
 16 19  1  0
 16 20  1  0
 16 22  2  0
 17 18  1  0
 17 21  1  0
 17 23  2  0
 22 26  1  0
 24 26  2  0
 25 26  2  0
M  END
>  <washed_aromatic_smiles>  (894) 
c1cnc(nc1)NS(=O)(=O)c2ccc(cc2)NC(=O)Cc3ccc(cc3)Br

>  <name>  (894) 
neg105266

$$$$
neg101982
     RDKit          3D

 27 29  0  0  0  0  0  0  0  0999 V2000
    2.3620    8.7770   55.0500 C   0  0  0  0  0  0  0  0  0  0  0  0
    4.6120    8.7010   54.2130 C   0  0  0  0  0  0  0  0  0  0  0  0
    2.7910    4.2580   51.6740 C   0  0  0  0  0  0  0  0  0  0  0  0
    1.8460    4.6860   49.4990 C   0  0  0  0  0  0  0  0  0  0  0  0
    2.5670    2.9060   51.4930 C   0  0  0  0  0  0  0  0  0  0  0  0
    1.5350    3.3320   49.3690 C   0  0  0  0  0  0  0  0  0  0  0  0
    2.8460    8.9430   56.3450 C   0  0  0  0  0  0  0  0  0  0  0  0
    5.1040    8.8260   55.5040 C   0  0  0  0  0  0  0  0  0  0  0  0
    3.2980   -0.4930   54.9180 C   0  0  0  0  0  0  0  0  0  0  0  0
    2.6290    0.6650   55.0980 C   0  0  0  0  0  0  0  0  0  0  0  0
    2.9880   -1.2890   53.7810 C   0  0  0  0  0  0  0  0  0  0  0  0
    3.2390    8.6610   53.9710 C   0  0  0  0  0  0  0  0  0  0  0  0
    2.3960    5.1590   50.6970 C   0  0  0  0  0  0  0  0  0  0  0  0
    1.8290    2.4400   50.4030 C   0  0  0  0  0  0  0  0  0  0  0  0
    4.2230    8.9570   56.5730 C   0  0  0  0  0  0  0  0  0  0  0  0
    1.4520    0.2540   53.0220 C   0  0  0  0  0  0  0  0  0  0  0  0
    2.1910    7.1250   52.1940 C   0  0  0  0  0  0  0  0  0  0  0  0
    2.6990    8.5120   52.5540 C   0  0  0  0  0  0  0  0  0  0  0  0
    1.6420    0.9620   54.1970 N   0  0  0  0  0  0  0  0  0  0  0  0
    2.1610   -0.9390   52.8790 N   0  0  0  0  0  0  0  0  0  0  0  0
    2.5740    6.5400   50.9910 N   0  0  0  0  0  0  0  0  0  0  0  0
    0.7170    0.8110   52.1450 N   0  0  0  0  0  0  0  0  0  0  0  0
    1.4210    6.5330   52.9270 O   0  0  0  0  0  0  0  0  0  0  0  0
    2.0630   -0.1740   50.2420 O   0  0  0  0  0  0  0  0  0  0  0  0
   -0.1140    0.7740   49.7730 O   0  0  0  0  0  0  0  0  0  0  0  0
    1.0810    0.8090   50.5500 S   0  0  0  0  0  0  0  0  0  0  0  0
    4.8600    9.1400   58.1750 Cl  0  0  0  0  0  0  0  0  0  0  0  0
  1  7  2  0
  1 12  1  0
  2  8  1  0
  2 12  2  0
  3  5  2  0
  3 13  1  0
  4  6  1  0
  4 13  2  0
  5 14  1  0
  6 14  2  0
  7 15  1  0
  8 15  2  0
  9 10  2  0
  9 11  1  0
 10 19  1  0
 11 20  2  0
 12 18  1  0
 13 21  1  0
 14 26  1  0
 15 27  1  0
 16 19  1  0
 16 20  1  0
 16 22  2  0
 17 18  1  0
 17 21  1  0
 17 23  2  0
 22 26  1  0
 24 26  2  0
 25 26  2  0
M  END
>  <washed_aromatic_smiles>  (895) 
c1cnc(nc1)NS(=O)(=O)c2ccc(cc2)NC(=O)Cc3ccc(cc3)Cl

>  <name>  (895) 
neg101982

$$$$
neg178604
     RDKit          3D

 25 27  0  0  0  0  0  0  0  0999 V2000
    2.8110    3.5620   49.5840 C   0  0  0  0  0  0  0  0  0  0  0  0
    2.7410    3.8550   51.9670 C   0  0  0  0  0  0  0  0  0  0  0  0
    2.9340    2.2000   49.7950 C   0  0  0  0  0  0  0  0  0  0  0  0
    2.8410    2.4870   52.1670 C   0  0  0  0  0  0  0  0  0  0  0  0
    3.3830    8.6950   52.0810 C   0  0  0  0  0  0  0  0  0  0  0  0
    2.7830    9.1290   53.2420 C   0  0  0  0  0  0  0  0  0  0  0  0
   -0.1860    1.5890   47.2500 C   0  0  0  0  0  0  0  0  0  0  0  0
    0.3910    2.2370   48.2780 C   0  0  0  0  0  0  0  0  0  0  0  0
   -0.7760    0.3390   47.5610 C   0  0  0  0  0  0  0  0  0  0  0  0
    2.5670    4.3460   50.6890 C   0  0  0  0  0  0  0  0  0  0  0  0
    2.8200    1.6410   51.0680 C   0  0  0  0  0  0  0  0  0  0  0  0
    2.7440    7.5560   51.6870 C   0  0  0  0  0  0  0  0  0  0  0  0
    1.7510    8.2930   53.4620 C   0  0  0  0  0  0  0  0  0  0  0  0
    0.4790    0.1720   49.4790 C   0  0  0  0  0  0  0  0  0  0  0  0
    2.9080    6.6490   50.5680 C   0  0  0  0  0  0  0  0  0  0  0  0
    0.4620    1.5510   49.4770 N   0  0  0  0  0  0  0  0  0  0  0  0
   -0.4450   -0.3720   48.5830 N   0  0  0  0  0  0  0  0  0  0  0  0
    2.0440    5.6110   50.5640 N   0  0  0  0  0  0  0  0  0  0  0  0
    1.2960   -0.5090   50.2050 N   0  0  0  0  0  0  0  0  0  0  0  0
    3.7050    6.7030   49.6400 O   0  0  0  0  0  0  0  0  0  0  0  0
    2.0770   -0.3380   52.6000 O   0  0  0  0  0  0  0  0  0  0  0  0
    3.7220   -0.7580   50.8740 O   0  0  0  0  0  0  0  0  0  0  0  0
    1.7260    7.3200   52.5570 O   0  0  0  0  0  0  0  0  0  0  0  0
    2.5180   -0.1100   51.2600 S   0  0  0  0  0  0  0  0  0  0  0  0
    0.4000    8.3480   54.7200 Br  0  0  0  0  0  0  0  0  0  0  0  0
  1  3  2  0
  1 10  1  0
  2  4  1  0
  2 10  2  0
  3 11  1  0
  4 11  2  0
  5  6  1  0
  5 12  2  0
  6 13  2  0
  7  8  2  0
  7  9  1  0
  8 16  1  0
  9 17  2  0
 10 18  1  0
 11 24  1  0
 12 15  1  0
 12 23  1  0
 13 23  1  0
 13 25  1  0
 14 16  1  0
 14 17  1  0
 14 19  2  0
 15 18  1  0
 15 20  2  0
 19 24  1  0
 21 24  2  0
 22 24  2  0
M  END
>  <washed_aromatic_smiles>  (896) 
c1cnc(nc1)NS(=O)(=O)c2ccc(cc2)NC(=O)c3ccc(o3)Br

>  <name>  (896) 
neg178604

$$$$
neg279566
     RDKit          3D

 26 27  0  0  0  0  0  0  0  0999 V2000
    2.7370    4.0900   48.2640 C   0  0  0  0  0  0  0  0  0  0  0  0
    3.0590    5.4130   48.5500 C   0  0  0  0  0  0  0  0  0  0  0  0
    2.5320    3.1910   49.2910 C   0  0  0  0  0  0  0  0  0  0  0  0
    3.5070    7.0860   54.7070 C   0  0  0  0  0  0  0  0  0  0  0  0
    3.3920    8.9960   53.2900 C   0  0  0  0  0  0  0  0  0  0  0  0
    3.1220    5.8490   49.8580 C   0  0  0  0  0  0  0  0  0  0  0  0
    4.1310    7.8140   55.6940 C   0  0  0  0  0  0  0  0  0  0  0  0
    4.0730    9.7440   54.2540 C   0  0  0  0  0  0  0  0  0  0  0  0
    3.1080    7.6390   53.4990 C   0  0  0  0  0  0  0  0  0  0  0  0
    2.6740    3.5760   50.6340 C   0  0  0  0  0  0  0  0  0  0  0  0
    4.4420    9.1600   55.4810 C   0  0  0  0  0  0  0  0  0  0  0  0
    2.8890    4.9570   50.9070 C   0  0  0  0  0  0  0  0  0  0  0  0
    2.4330    6.7990   52.5100 C   0  0  0  0  0  0  0  0  0  0  0  0
    2.6900    2.5160   51.6340 C   0  0  0  0  0  0  0  0  0  0  0  0
    1.3000   -0.0040   53.0730 C   0  0  0  0  0  0  0  0  0  0  0  0
    5.5970    9.1110   57.6740 C   0  0  0  0  0  0  0  0  0  0  0  0
    5.1340   12.5620   55.7670 C   0  0  0  0  0  0  0  0  0  0  0  0
    2.4520    0.0770   52.0770 C   0  0  0  0  0  0  0  0  0  0  0  0
    2.9440    5.5240   52.2110 N   0  0  0  0  0  0  0  0  0  0  0  0
    5.1420    9.8870   56.4970 N   0  0  0  0  0  0  0  0  0  0  0  0
    1.4130    7.1500   51.9310 O   0  0  0  0  0  0  0  0  0  0  0  0
    3.0240    2.6610   52.7910 O   0  0  0  0  0  0  0  0  0  0  0  0
    5.0410   11.7570   58.2300 O   0  0  0  0  0  0  0  0  0  0  0  0
    3.0970   11.3360   56.8570 O   0  0  0  0  0  0  0  0  0  0  0  0
    2.3710    1.2550   51.2360 O   0  0  0  0  0  0  0  0  0  0  0  0
    4.5110   11.3860   56.9610 S   0  0  0  0  0  0  0  0  0  0  0  0
  1  2  2  0
  1  3  1  0
  2  6  1  0
  3 10  2  0
  4  7  2  0
  4  9  1  0
  5  8  1  0
  5  9  2  0
  6 12  2  0
  7 11  1  0
  8 11  2  0
  9 13  1  0
 10 12  1  0
 10 14  1  0
 11 20  1  0
 12 19  1  0
 13 19  1  0
 13 21  2  0
 14 22  2  0
 14 25  1  0
 15 18  1  0
 16 20  1  0
 17 26  1  0
 18 25  1  0
 20 26  1  0
 23 26  2  0
 24 26  2  0
M  END
>  <washed_aromatic_smiles>  (897) 
CCOC(=O)c1ccccc1NC(=O)c2ccc(cc2)N(C)S(=O)(=O)C

>  <name>  (897) 
neg279566

$$$$
neg310066
     RDKit          3D

 27 30  0  0  0  0  0  0  0  0999 V2000
    5.3700   10.9630   53.5450 C   0  0  0  0  0  0  0  0  0  0  0  0
    5.9040    9.7390   53.8860 C   0  0  0  0  0  0  0  0  0  0  0  0
    4.0710   11.0070   53.0760 C   0  0  0  0  0  0  0  0  0  0  0  0
    5.1400    8.5960   53.7780 C   0  0  0  0  0  0  0  0  0  0  0  0
    3.3060    9.8440   52.9120 C   0  0  0  0  0  0  0  0  0  0  0  0
    3.5060    6.2780   53.7260 C   0  0  0  0  0  0  0  0  0  0  0  0
    1.0590    1.3530   50.7030 C   0  0  0  0  0  0  0  0  0  0  0  0
    3.8550    8.5990   53.1990 C   0  0  0  0  0  0  0  0  0  0  0  0
    3.2740    7.2950   52.8460 C   0  0  0  0  0  0  0  0  0  0  0  0
    2.1950    0.7310   51.2000 C   0  0  0  0  0  0  0  0  0  0  0  0
    3.0240    6.6220   51.6620 C   0  0  0  0  0  0  0  0  0  0  0  0
    3.0280    1.7410   51.5930 C   0  0  0  0  0  0  0  0  0  0  0  0
    2.8620    4.6510   49.7360 C   0  0  0  0  0  0  0  0  0  0  0  0
    2.8150    4.2610   51.0210 C   0  0  0  0  0  0  0  0  0  0  0  0
    3.0980    6.0050   49.4650 C   0  0  0  0  0  0  0  0  0  0  0  0
    2.3930   -0.6830   51.2020 C   0  0  0  0  0  0  0  0  0  0  0  0
    3.4670    6.3070   48.0930 C   0  0  0  0  0  0  0  0  0  0  0  0
    1.3850   -0.3840   53.9820 C   0  0  0  0  0  0  0  0  0  0  0  0
    2.8000   -0.7860   53.6200 C   0  0  0  0  0  0  0  0  0  0  0  0
    3.5860    5.1090   53.1520 N   0  0  0  0  0  0  0  0  0  0  0  0
    1.1700    2.6300   50.7510 N   0  0  0  0  0  0  0  0  0  0  0  0
    3.1320    6.9520   50.3450 N   0  0  0  0  0  0  0  0  0  0  0  0
    3.0860    5.2760   51.9540 N   0  0  0  0  0  0  0  0  0  0  0  0
    2.3950    2.9250   51.2870 N   0  0  0  0  0  0  0  0  0  0  0  0
    4.2860    1.6080   52.1240 N   0  0  0  0  0  0  0  0  0  0  0  0
    2.0600   -1.3910   50.2700 O   0  0  0  0  0  0  0  0  0  0  0  0
    2.8890   -1.3200   52.2840 O   0  0  0  0  0  0  0  0  0  0  0  0
  1  2  2  0
  1  3  1  0
  2  4  1  0
  3  5  2  0
  4  8  2  0
  5  8  1  0
  6  9  1  0
  6 20  2  0
  7 10  1  0
  7 21  2  0
  8  9  1  0
  9 11  2  0
 10 12  2  0
 10 16  1  0
 11 22  1  0
 11 23  1  0
 12 24  1  0
 12 25  1  0
 13 14  2  0
 13 15  1  0
 14 23  1  0
 14 24  1  0
 15 17  1  0
 15 22  2  0
 16 26  2  0
 16 27  1  0
 18 19  1  0
 19 27  1  0
 20 23  1  0
 21 24  1  0
M  END
>  <washed_aromatic_smiles>  (898) 
CCOC(=O)c1cnn(c1N)c2cc(nc3n2ncc3c4ccccc4)C

>  <name>  (898) 
neg310066

$$$$
neg106027
     RDKit          3D

 33 35  0  0  0  0  0  0  0  0999 V2000
    2.6450    3.3820   51.2950 C   0  0  0  0  0  0  0  0  0  0  0  0
    2.5810    5.0690   49.5700 C   0  0  0  0  0  0  0  0  0  0  0  0
    2.9390    4.3570   52.2110 C   0  0  0  0  0  0  0  0  0  0  0  0
    2.8730    6.0520   50.5140 C   0  0  0  0  0  0  0  0  0  0  0  0
    4.0500    9.9020   54.3620 C   0  0  0  0  0  0  0  0  0  0  0  0
    3.8300    7.7460   55.4290 C   0  0  0  0  0  0  0  0  0  0  0  0
    3.7440    8.5350   54.2770 C   0  0  0  0  0  0  0  0  0  0  0  0
    2.4040    3.7270   49.9670 C   0  0  0  0  0  0  0  0  0  0  0  0
    3.0090    5.6930   51.8550 C   0  0  0  0  0  0  0  0  0  0  0  0
    4.2800   10.4900   55.6070 C   0  0  0  0  0  0  0  0  0  0  0  0
    4.0900    8.3260   56.6560 C   0  0  0  0  0  0  0  0  0  0  0  0
    4.1770    9.7130   56.7610 C   0  0  0  0  0  0  0  0  0  0  0  0
    3.3230    7.9460   53.0150 C   0  0  0  0  0  0  0  0  0  0  0  0
    1.1030    0.0800   46.4760 C   0  0  0  0  0  0  0  0  0  0  0  0
    1.4640    3.0940   47.7650 C   0  0  0  0  0  0  0  0  0  0  0  0
    1.6160    1.3540   49.6770 C   0  0  0  0  0  0  0  0  0  0  0  0
    0.2920    2.2240   47.3660 C   0  0  0  0  0  0  0  0  0  0  0  0
    0.7150    0.4050   48.8670 C   0  0  0  0  0  0  0  0  0  0  0  0
    1.0490    0.6760   45.0810 C   0  0  0  0  0  0  0  0  0  0  0  0
    5.3180   12.8730   53.5780 C   0  0  0  0  0  0  0  0  0  0  0  0
    5.2730    5.7740   59.2200 C   0  0  0  0  0  0  0  0  0  0  0  0
    6.0810    9.3680   59.0320 C   0  0  0  0  0  0  0  0  0  0  0  0
    4.6400   13.0280   54.9400 C   0  0  0  0  0  0  0  0  0  0  0  0
    5.0950    6.3310   57.8070 C   0  0  0  0  0  0  0  0  0  0  0  0
    5.3220   10.6340   58.6300 C   0  0  0  0  0  0  0  0  0  0  0  0
    1.9980    2.6980   49.0770 N   0  0  0  0  0  0  0  0  0  0  0  0
    0.5840    0.8040   47.4790 N   0  0  0  0  0  0  0  0  0  0  0  0
    3.2820    6.5680   52.9370 N   0  0  0  0  0  0  0  0  0  0  0  0
    3.0170    8.6200   52.0530 O   0  0  0  0  0  0  0  0  0  0  0  0
    1.6570   -1.0030   46.6540 O   0  0  0  0  0  0  0  0  0  0  0  0
    4.6240   11.8300   55.7640 O   0  0  0  0  0  0  0  0  0  0  0  0
    4.2820    7.5330   57.7680 O   0  0  0  0  0  0  0  0  0  0  0  0
    4.1040   10.3090   57.9910 O   0  0  0  0  0  0  0  0  0  0  0  0
  1  3  2  0
  1  8  1  0
  2  4  1  0
  2  8  2  0
  3  9  1  0
  4  9  2  0
  5  7  2  0
  5 10  1  0
  6  7  1  0
  6 11  2  0
  7 13  1  0
  8 26  1  0
  9 28  1  0
 10 12  2  0
 10 31  1  0
 11 12  1  0
 11 32  1  0
 12 33  1  0
 13 28  1  0
 13 29  2  0
 14 19  1  0
 14 27  1  0
 14 30  2  0
 15 17  1  0
 15 26  1  0
 16 18  1  0
 16 26  1  0
 17 27  1  0
 18 27  1  0
 20 23  1  0
 21 24  1  0
 22 25  1  0
 23 31  1  0
 24 32  1  0
 25 33  1  0
M  END
>  <washed_aromatic_smiles>  (899) 
CCOc1cc(cc(c1OCC)OCC)C(=O)Nc2ccc(cc2)N3CCN(CC3)C(=O)C

>  <name>  (899) 
neg106027

$$$$
neg8980
     RDKit          3D

 28 30  0  0  0  0  0  0  0  0999 V2000
    0.3740    7.7330   53.0810 C   0  0  0  0  0  0  0  0  0  0  0  0
    1.6630    8.2210   52.9800 C   0  0  0  0  0  0  0  0  0  0  0  0
    0.0000    6.6170   52.3380 C   0  0  0  0  0  0  0  0  0  0  0  0
    2.5460    0.8840   52.4000 C   0  0  0  0  0  0  0  0  0  0  0  0
    1.1620   -0.6650   53.5470 C   0  0  0  0  0  0  0  0  0  0  0  0
    2.5600    7.6120   52.1160 C   0  0  0  0  0  0  0  0  0  0  0  0
    0.9090    5.9890   51.5000 C   0  0  0  0  0  0  0  0  0  0  0  0
    3.3850    0.9390   53.4760 C   0  0  0  0  0  0  0  0  0  0  0  0
    2.0120   -0.6180   54.6440 C   0  0  0  0  0  0  0  0  0  0  0  0
    1.4000    0.1100   52.4070 C   0  0  0  0  0  0  0  0  0  0  0  0
    2.1940    6.4970   51.3570 C   0  0  0  0  0  0  0  0  0  0  0  0
    3.1120    0.2200   54.6290 C   0  0  0  0  0  0  0  0  0  0  0  0
    0.5480    0.1600   51.2260 C   0  0  0  0  0  0  0  0  0  0  0  0
    0.5640    1.3140   48.0540 C   0  0  0  0  0  0  0  0  0  0  0  0
    2.5710    2.2650   49.2370 C   0  0  0  0  0  0  0  0  0  0  0  0
    1.4200    3.6010   47.6670 C   0  0  0  0  0  0  0  0  0  0  0  0
    2.6680    3.4400   50.2220 C   0  0  0  0  0  0  0  0  0  0  0  0
    1.6960    4.8660   48.5070 C   0  0  0  0  0  0  0  0  0  0  0  0
    5.7290   -0.1660   57.3390 C   0  0  0  0  0  0  0  0  0  0  0  0
    3.1800    5.9290   50.3510 C   0  0  0  0  0  0  0  0  0  0  0  0
    0.5370   -0.0780   48.7110 C   0  0  0  0  0  0  0  0  0  0  0  0
    4.6660   -0.7080   56.3870 C   0  0  0  0  0  0  0  0  0  0  0  0
    1.3810    2.3400   48.4190 N   0  0  0  0  0  0  0  0  0  0  0  0
    2.8290    4.7200   49.4900 N   0  0  0  0  0  0  0  0  0  0  0  0
    1.0960   -0.2950   50.0540 N   0  0  0  0  0  0  0  0  0  0  0  0
   -0.5740    0.6490   51.2110 O   0  0  0  0  0  0  0  0  0  0  0  0
   -0.1800    1.4750   47.0890 O   0  0  0  0  0  0  0  0  0  0  0  0
    3.9170    0.3690   55.7390 O   0  0  0  0  0  0  0  0  0  0  0  0
  1  2  2  0
  1  3  1  0
  2  6  1  0
  3  7  2  0
  4  8  2  0
  4 10  1  0
  5  9  1  0
  5 10  2  0
  6 11  2  0
  7 11  1  0
  8 12  1  0
  9 12  2  0
 10 13  1  0
 11 20  1  0
 12 28  1  0
 13 25  1  0
 13 26  2  0
 14 21  1  0
 14 23  1  0
 14 27  2  0
 15 17  1  0
 15 23  1  0
 16 18  1  0
 16 23  1  0
 17 24  1  0
 18 24  1  0
 19 22  1  0
 20 24  1  0
 21 25  1  0
 22 28  1  0
M  CHG  1  24   1
M  END
>  <washed_aromatic_smiles>  (900) 
CCOc1ccc(cc1)C(=O)NCC(=O)N2CCN(CC2)Cc3ccccc3

>  <name>  (900) 
neg8980

$$$$
neg43055
     RDKit          3D

 27 28  0  0  0  0  0  0  0  0999 V2000
    4.4890    9.7610   57.3420 C   0  0  0  0  0  0  0  0  0  0  0  0
    4.9790   11.0580   57.4580 C   0  0  0  0  0  0  0  0  0  0  0  0
    4.1890    9.2390   56.0900 C   0  0  0  0  0  0  0  0  0  0  0  0
    2.8260    2.0350   53.4540 C   0  0  0  0  0  0  0  0  0  0  0  0
    2.6230    0.3870   51.7320 C   0  0  0  0  0  0  0  0  0  0  0  0
    3.0570    1.0850   54.4120 C   0  0  0  0  0  0  0  0  0  0  0  0
    2.8990   -0.5970   52.6940 C   0  0  0  0  0  0  0  0  0  0  0  0
    5.1830   11.8280   56.3230 C   0  0  0  0  0  0  0  0  0  0  0  0
    4.3650   10.0010   54.9220 C   0  0  0  0  0  0  0  0  0  0  0  0
    2.6210    1.7350   52.1150 C   0  0  0  0  0  0  0  0  0  0  0  0
    3.1800   -0.2240   54.0200 C   0  0  0  0  0  0  0  0  0  0  0  0
    4.8900   11.3100   55.0570 C   0  0  0  0  0  0  0  0  0  0  0  0
    3.9920    9.4310   53.6240 C   0  0  0  0  0  0  0  0  0  0  0  0
    2.4800    4.2110   51.4300 C   0  0  0  0  0  0  0  0  0  0  0  0
    1.3570    6.9850   52.6000 C   0  0  0  0  0  0  0  0  0  0  0  0
    5.8660   -1.3030   56.3870 C   0  0  0  0  0  0  0  0  0  0  0  0
    1.7340    5.2260   50.6120 C   0  0  0  0  0  0  0  0  0  0  0  0
    0.7940    6.0800   51.5000 C   0  0  0  0  0  0  0  0  0  0  0  0
    4.4140   -0.8350   56.2770 C   0  0  0  0  0  0  0  0  0  0  0  0
    2.3390    2.8250   51.1830 N   0  0  0  0  0  0  0  0  0  0  0  0
    2.9340    8.5550   53.5990 N   0  0  0  0  0  0  0  0  0  0  0  0
    2.4630    7.7760   52.4360 N   0  0  0  0  0  0  0  0  0  0  0  0
    4.5680    9.6930   52.5730 O   0  0  0  0  0  0  0  0  0  0  0  0
    3.1480    4.6460   52.3400 O   0  0  0  0  0  0  0  0  0  0  0  0
    0.7890    7.0310   53.6830 O   0  0  0  0  0  0  0  0  0  0  0  0
    3.7040   -1.0910   54.9500 O   0  0  0  0  0  0  0  0  0  0  0  0
    5.1660   12.3660   53.6950 Cl  0  0  0  0  0  0  0  0  0  0  0  0
  1  2  2  0
  1  3  1  0
  2  8  1  0
  3  9  2  0
  4  6  2  0
  4 10  1  0
  5  7  1  0
  5 10  2  0
  6 11  1  0
  7 11  2  0
  8 12  2  0
  9 12  1  0
  9 13  1  0
 10 20  1  0
 11 26  1  0
 12 27  1  0
 13 21  1  0
 13 23  2  0
 14 17  1  0
 14 20  1  0
 14 24  2  0
 15 18  1  0
 15 22  1  0
 15 25  2  0
 16 19  1  0
 17 18  1  0
 19 26  1  0
 21 22  1  0
M  END
>  <washed_aromatic_smiles>  (901) 
CCOc1ccc(cc1)NC(=O)CCC(=O)NNC(=O)c2ccccc2Cl

>  <name>  (901) 
neg43055

$$$$
neg290259
     RDKit          3D

 33 35  0  0  0  0  0  0  0  0999 V2000
    2.6090   -1.0340   52.5430 C   0  0  0  0  0  0  0  0  0  0  0  0
    2.5290    1.3660   52.7350 C   0  0  0  0  0  0  0  0  0  0  0  0
    3.0350   -1.0820   53.8560 C   0  0  0  0  0  0  0  0  0  0  0  0
    2.8280    1.2900   54.0840 C   0  0  0  0  0  0  0  0  0  0  0  0
    1.5290    7.9980   54.2320 C   0  0  0  0  0  0  0  0  0  0  0  0
    3.8950    8.4930   54.4750 C   0  0  0  0  0  0  0  0  0  0  0  0
    2.3150    9.2700   56.1430 C   0  0  0  0  0  0  0  0  0  0  0  0
    2.4110    0.2000   51.9610 C   0  0  0  0  0  0  0  0  0  0  0  0
    2.8420    7.8990   53.7720 C   0  0  0  0  0  0  0  0  0  0  0  0
    3.1560    0.0670   54.6300 C   0  0  0  0  0  0  0  0  0  0  0  0
    1.2840    8.6730   55.4130 C   0  0  0  0  0  0  0  0  0  0  0  0
    3.6200    9.1830   55.6530 C   0  0  0  0  0  0  0  0  0  0  0  0
    0.9720    0.3860   49.9580 C   0  0  0  0  0  0  0  0  0  0  0  0
    2.3980    6.8390   51.5370 C   0  0  0  0  0  0  0  0  0  0  0  0
    1.4680    2.9790   50.2230 C   0  0  0  0  0  0  0  0  0  0  0  0
    2.2500    3.2740   48.0390 C   0  0  0  0  0  0  0  0  0  0  0  0
    1.5530    4.4370   50.5250 C   0  0  0  0  0  0  0  0  0  0  0  0
    2.5650    4.7470   48.4170 C   0  0  0  0  0  0  0  0  0  0  0  0
    5.7080   -0.0960   57.3200 C   0  0  0  0  0  0  0  0  0  0  0  0
   -0.4630    8.5870   57.2590 C   0  0  0  0  0  0  0  0  0  0  0  0
    4.5320   10.6450   57.4620 C   0  0  0  0  0  0  0  0  0  0  0  0
    0.9570    1.1980   48.6580 C   0  0  0  0  0  0  0  0  0  0  0  0
    3.1240    6.2430   50.3180 C   0  0  0  0  0  0  0  0  0  0  0  0
    4.6740   -0.8340   56.4730 C   0  0  0  0  0  0  0  0  0  0  0  0
    1.1480    2.6840   48.8370 N   0  0  0  0  0  0  0  0  0  0  0  0
    2.7360    4.9100   49.8700 N   0  0  0  0  0  0  0  0  0  0  0  0
    2.2010    0.2310   50.5600 N   0  0  0  0  0  0  0  0  0  0  0  0
    3.1870    7.1830   52.6040 N   0  0  0  0  0  0  0  0  0  0  0  0
   -0.0430    0.0780   50.5480 O   0  0  0  0  0  0  0  0  0  0  0  0
    1.1920    7.0000   51.5870 O   0  0  0  0  0  0  0  0  0  0  0  0
   -0.0260    8.6190   55.8730 O   0  0  0  0  0  0  0  0  0  0  0  0
    4.6810    9.7740   56.3150 O   0  0  0  0  0  0  0  0  0  0  0  0
    3.6860    0.0780   55.9080 O   0  0  0  0  0  0  0  0  0  0  0  0
  1  3  2  0
  1  8  1  0
  2  4  1  0
  2  8  2  0
  3 10  1  0
  4 10  2  0
  5  9  2  0
  5 11  1  0
  6  9  1  0
  6 12  2  0
  7 11  2  0
  7 12  1  0
  8 27  1  0
  9 28  1  0
 10 33  1  0
 11 31  1  0
 12 32  1  0
 13 22  1  0
 13 27  1  0
 13 29  2  0
 14 23  1  0
 14 28  1  0
 14 30  2  0
 15 17  1  0
 15 25  1  0
 16 18  1  0
 16 25  1  0
 17 26  1  0
 18 26  1  0
 19 24  1  0
 20 31  1  0
 21 32  1  0
 22 25  1  0
 23 26  1  0
 24 33  1  0
M  END
>  <washed_aromatic_smiles>  (902) 
CCOc1ccc(cc1)NC(=O)CN2CCN(CC2)CC(=O)Nc3cc(cc(c3)OC)OC

>  <name>  (902) 
neg290259

$$$$
neg290745
     RDKit          3D

 31 33  0  0  0  0  0  0  0  0999 V2000
    0.1900    1.1690   50.5530 C   0  0  0  0  0  0  0  0  0  0  0  0
    0.7320    1.4190   48.1960 C   0  0  0  0  0  0  0  0  0  0  0  0
    4.4550   11.5700   56.1430 C   0  0  0  0  0  0  0  0  0  0  0  0
   -0.7870    0.2680   50.2380 C   0  0  0  0  0  0  0  0  0  0  0  0
   -0.2370    0.4790   47.8840 C   0  0  0  0  0  0  0  0  0  0  0  0
    5.1090   12.2130   57.1900 C   0  0  0  0  0  0  0  0  0  0  0  0
    4.4720    9.4700   57.3900 C   0  0  0  0  0  0  0  0  0  0  0  0
    0.9160    1.7750   49.5280 C   0  0  0  0  0  0  0  0  0  0  0  0
    4.0830   10.2220   56.2770 C   0  0  0  0  0  0  0  0  0  0  0  0
   -1.0270   -0.0640   48.9050 C   0  0  0  0  0  0  0  0  0  0  0  0
    5.4190   11.4850   58.3330 C   0  0  0  0  0  0  0  0  0  0  0  0
    5.1510   10.1200   58.4060 C   0  0  0  0  0  0  0  0  0  0  0  0
    2.3430    2.9470   51.0600 C   0  0  0  0  0  0  0  0  0  0  0  0
    2.0270    9.0550   55.6080 C   0  0  0  0  0  0  0  0  0  0  0  0
    3.2680    6.2420   52.5310 C   0  0  0  0  0  0  0  0  0  0  0  0
    1.1920    6.1120   51.5270 C   0  0  0  0  0  0  0  0  0  0  0  0
    2.8760    7.1930   53.6210 C   0  0  0  0  0  0  0  0  0  0  0  0
    0.6540    7.1510   52.5380 C   0  0  0  0  0  0  0  0  0  0  0  0
   -4.1880   -2.1900   49.2320 C   0  0  0  0  0  0  0  0  0  0  0  0
    2.8570    4.2760   51.4810 C   0  0  0  0  0  0  0  0  0  0  0  0
    1.0980    8.4940   54.5090 C   0  0  0  0  0  0  0  0  0  0  0  0
   -3.4250   -0.8710   49.3900 C   0  0  0  0  0  0  0  0  0  0  0  0
    2.1940    5.3230   52.1980 N   0  0  0  0  0  0  0  0  0  0  0  0
    1.6920    7.9750   53.2720 N   0  0  0  0  0  0  0  0  0  0  0  0
    1.7350    2.8590   49.8510 N   0  0  0  0  0  0  0  0  0  0  0  0
    3.2490    9.6250   55.3010 N   0  0  0  0  0  0  0  0  0  0  0  0
    2.5830    1.9480   51.7240 O   0  0  0  0  0  0  0  0  0  0  0  0
    1.6730    9.0630   56.7750 O   0  0  0  0  0  0  0  0  0  0  0  0
   -2.1840   -0.7690   48.5870 O   0  0  0  0  0  0  0  0  0  0  0  0
    6.0070   12.1210   59.3650 F   0  0  0  0  0  0  0  0  0  0  0  0
    5.5730    9.3920   59.4540 F   0  0  0  0  0  0  0  0  0  0  0  0
  1  4  2  0
  1  8  1  0
  2  5  1  0
  2  8  2  0
  3  6  2  0
  3  9  1  0
  4 10  1  0
  5 10  2  0
  6 11  1  0
  7  9  2  0
  7 12  1  0
  8 25  1  0
  9 26  1  0
 10 29  1  0
 11 12  2  0
 11 30  1  0
 12 31  1  0
 13 20  1  0
 13 25  1  0
 13 27  2  0
 14 21  1  0
 14 26  1  0
 14 28  2  0
 15 17  1  0
 15 23  1  0
 16 18  1  0
 16 23  1  0
 17 24  1  0
 18 24  1  0
 19 22  1  0
 20 23  1  0
 21 24  1  0
 22 29  1  0
M  END
>  <washed_aromatic_smiles>  (903) 
CCOc1ccc(cc1)NC(=O)CN2CCN(CC2)CC(=O)Nc3ccc(c(c3)F)F

>  <name>  (903) 
neg290745

$$$$
neg251734
     RDKit          3D

 31 33  0  0  0  0  0  0  0  0999 V2000
    4.7670    7.2900   57.2040 C   0  0  0  0  0  0  0  0  0  0  0  0
    5.8990    7.7230   59.2950 C   0  0  0  0  0  0  0  0  0  0  0  0
    2.0080    1.6380   50.6310 C   0  0  0  0  0  0  0  0  0  0  0  0
   -0.0110    0.3880   51.1510 C   0  0  0  0  0  0  0  0  0  0  0  0
    4.4210    8.6260   57.0930 C   0  0  0  0  0  0  0  0  0  0  0  0
    5.5690    9.0750   59.1590 C   0  0  0  0  0  0  0  0  0  0  0  0
    1.6120    1.7270   49.3020 C   0  0  0  0  0  0  0  0  0  0  0  0
   -0.3890    0.4530   49.8240 C   0  0  0  0  0  0  0  0  0  0  0  0
    5.4800    6.8010   58.3250 C   0  0  0  0  0  0  0  0  0  0  0  0
    1.2110    0.9250   51.5330 C   0  0  0  0  0  0  0  0  0  0  0  0
    4.8110    9.5120   58.0780 C   0  0  0  0  0  0  0  0  0  0  0  0
    0.4260    1.1000   48.9010 C   0  0  0  0  0  0  0  0  0  0  0  0
    5.2560    4.2820   57.8670 C   0  0  0  0  0  0  0  0  0  0  0  0
    2.7790   -0.1370   53.0330 C   0  0  0  0  0  0  0  0  0  0  0  0
    5.2360    0.3640   57.3620 C   0  0  0  0  0  0  0  0  0  0  0  0
    3.5670    1.9070   56.7500 C   0  0  0  0  0  0  0  0  0  0  0  0
    4.6020   -0.6620   56.3500 C   0  0  0  0  0  0  0  0  0  0  0  0
    3.1460    1.1930   55.4980 C   0  0  0  0  0  0  0  0  0  0  0  0
    1.0140    0.6250   45.4530 C   0  0  0  0  0  0  0  0  0  0  0  0
    5.3540   11.8890   57.8550 C   0  0  0  0  0  0  0  0  0  0  0  0
    5.4960    2.7750   58.1450 C   0  0  0  0  0  0  0  0  0  0  0  0
    2.8950   -0.8820   54.3590 C   0  0  0  0  0  0  0  0  0  0  0  0
    0.5470    1.6780   46.4480 C   0  0  0  0  0  0  0  0  0  0  0  0
    5.0040    1.7900   57.0480 N   0  0  0  0  0  0  0  0  0  0  0  0
    3.3790   -0.2040   55.5700 N   0  0  0  0  0  0  0  0  0  0  0  0
    5.8000    5.3680   58.5580 N   0  0  0  0  0  0  0  0  0  0  0  0
    1.6530    0.6170   52.8320 N   0  0  0  0  0  0  0  0  0  0  0  0
    4.4930    4.5680   57.0010 O   0  0  0  0  0  0  0  0  0  0  0  0
    3.5680   -0.2730   52.1190 O   0  0  0  0  0  0  0  0  0  0  0  0
    4.4000   10.8210   57.9680 O   0  0  0  0  0  0  0  0  0  0  0  0
   -0.0260    1.0790   47.6040 O   0  0  0  0  0  0  0  0  0  0  0  0
  1  5  2  0
  1  9  1  0
  2  6  1  0
  2  9  2  0
  3  7  2  0
  3 10  1  0
  4  8  1  0
  4 10  2  0
  5 11  1  0
  6 11  2  0
  7 12  1  0
  8 12  2  0
  9 26  1  0
 10 27  1  0
 11 30  1  0
 12 31  1  0
 13 21  1  0
 13 26  1  0
 13 28  2  0
 14 22  1  0
 14 27  1  0
 14 29  2  0
 15 17  1  0
 15 24  1  0
 16 18  1  0
 16 24  1  0
 17 25  1  0
 18 25  1  0
 19 23  1  0
 20 30  1  0
 21 24  1  0
 22 25  1  0
 23 31  1  0
M  END
>  <washed_aromatic_smiles>  (904) 
CCOc1ccc(cc1)NC(=O)CN2CCN(CC2)CC(=O)Nc3ccc(cc3)OC

>  <name>  (904) 
neg251734

$$$$
neg293764
     RDKit          3D

 32 35  0  0  0  0  0  0  0  0999 V2000
    1.4370   -0.5500   53.8420 C   0  0  0  0  0  0  0  0  0  0  0  0
    2.8080    8.3680   54.6040 C   0  0  0  0  0  0  0  0  0  0  0  0
    4.3510    9.6110   53.1930 C   0  0  0  0  0  0  0  0  0  0  0  0
    1.9960   -0.9180   55.0440 C   0  0  0  0  0  0  0  0  0  0  0  0
    3.3620    8.9670   55.7310 C   0  0  0  0  0  0  0  0  0  0  0  0
    4.9140   10.1960   54.3160 C   0  0  0  0  0  0  0  0  0  0  0  0
    3.0570    1.2370   53.6900 C   0  0  0  0  0  0  0  0  0  0  0  0
    3.3200    8.6820   53.3450 C   0  0  0  0  0  0  0  0  0  0  0  0
    2.0370    0.4590   53.1160 C   0  0  0  0  0  0  0  0  0  0  0  0
    3.1880   -0.3780   55.4470 C   0  0  0  0  0  0  0  0  0  0  0  0
    3.5720    0.8150   54.9310 C   0  0  0  0  0  0  0  0  0  0  0  0
    4.4250    9.8660   55.5780 C   0  0  0  0  0  0  0  0  0  0  0  0
    3.1000    6.7150   51.9130 C   0  0  0  0  0  0  0  0  0  0  0  0
    2.2340    0.6680   50.6640 C   0  0  0  0  0  0  0  0  0  0  0  0
    1.4120    4.7680   50.5980 C   0  0  0  0  0  0  0  0  0  0  0  0
    2.7380    4.7160   48.6430 C   0  0  0  0  0  0  0  0  0  0  0  0
    1.4410    3.2660   50.6560 C   0  0  0  0  0  0  0  0  0  0  0  0
    2.4620    3.2040   48.4510 C   0  0  0  0  0  0  0  0  0  0  0  0
    4.8460    0.2840   56.7310 C   0  0  0  0  0  0  0  0  0  0  0  0
    5.3060   11.4960   58.8370 C   0  0  0  0  0  0  0  0  0  0  0  0
    3.2370    6.3450   50.4340 C   0  0  0  0  0  0  0  0  0  0  0  0
    1.4480    1.1740   49.4510 C   0  0  0  0  0  0  0  0  0  0  0  0
    4.3610   10.8070   57.8600 C   0  0  0  0  0  0  0  0  0  0  0  0
    2.7050    5.0670   50.0630 N   0  0  0  0  0  0  0  0  0  0  0  0
    1.3920    2.6510   49.3200 N   0  0  0  0  0  0  0  0  0  0  0  0
    2.8450    8.0370   52.1830 N   0  0  0  0  0  0  0  0  0  0  0  0
    1.5120    0.6340   51.8280 N   0  0  0  0  0  0  0  0  0  0  0  0
    3.3590    5.9420   52.8210 O   0  0  0  0  0  0  0  0  0  0  0  0
    3.4260    0.4180   50.6730 O   0  0  0  0  0  0  0  0  0  0  0  0
    4.0560   -0.8520   56.3990 O   0  0  0  0  0  0  0  0  0  0  0  0
    4.4550    1.3350   55.8440 O   0  0  0  0  0  0  0  0  0  0  0  0
    5.0460   10.4520   56.6530 O   0  0  0  0  0  0  0  0  0  0  0  0
  1  4  2  0
  1  9  1  0
  2  5  2  0
  2  8  1  0
  3  6  1  0
  3  8  2  0
  4 10  1  0
  5 12  1  0
  6 12  2  0
  7  9  2  0
  7 11  1  0
  8 26  1  0
  9 27  1  0
 10 11  2  0
 10 30  1  0
 11 31  1  0
 12 32  1  0
 13 21  1  0
 13 26  1  0
 13 28  2  0
 14 22  1  0
 14 27  1  0
 14 29  2  0
 15 17  1  0
 15 24  1  0
 16 18  1  0
 16 24  1  0
 17 25  1  0
 18 25  1  0
 19 30  1  0
 19 31  1  0
 20 23  1  0
 21 24  1  0
 22 25  1  0
 23 32  1  0
M  END
>  <washed_aromatic_smiles>  (905) 
CCOc1ccc(cc1)NC(=O)CN2CCN(CC2)CC(=O)Nc3ccc4c(c3)OCO4

>  <name>  (905) 
neg293764

$$$$
neg21473
     RDKit          3D

 30 32  0  0  0  0  0  0  0  0999 V2000
    3.2340   -0.5210   54.5390 C   0  0  0  0  0  0  0  0  0  0  0  0
    2.6650    3.7940   47.7360 C   0  0  0  0  0  0  0  0  0  0  0  0
    2.7890   -1.1690   53.3960 C   0  0  0  0  0  0  0  0  0  0  0  0
    3.1380    0.8520   54.6180 C   0  0  0  0  0  0  0  0  0  0  0  0
    3.9410    4.2580   48.0210 C   0  0  0  0  0  0  0  0  0  0  0  0
    1.6380    4.0750   48.5920 C   0  0  0  0  0  0  0  0  0  0  0  0
    2.1290   -0.4850   52.3910 C   0  0  0  0  0  0  0  0  0  0  0  0
    2.5820    1.5520   53.5600 C   0  0  0  0  0  0  0  0  0  0  0  0
    3.9870    9.6710   55.2280 C   0  0  0  0  0  0  0  0  0  0  0  0
    4.9870   10.8500   53.3510 C   0  0  0  0  0  0  0  0  0  0  0  0
    4.1730    5.0900   49.1240 C   0  0  0  0  0  0  0  0  0  0  0  0
    4.5700   10.5830   56.1030 C   0  0  0  0  0  0  0  0  0  0  0  0
    5.5610   11.7620   54.2250 C   0  0  0  0  0  0  0  0  0  0  0  0
    1.9420    4.6880   49.7950 C   0  0  0  0  0  0  0  0  0  0  0  0
    1.9810    0.8870   52.4870 C   0  0  0  0  0  0  0  0  0  0  0  0
    4.1910    9.8150   53.8490 C   0  0  0  0  0  0  0  0  0  0  0  0
    5.3490   11.6310   55.5950 C   0  0  0  0  0  0  0  0  0  0  0  0
    3.1550    5.3050   50.0240 C   0  0  0  0  0  0  0  0  0  0  0  0
    1.3250    4.1310   50.9200 C   0  0  0  0  0  0  0  0  0  0  0  0
    3.1520    7.6730   52.9680 C   0  0  0  0  0  0  0  0  0  0  0  0
    6.3380   13.8940   58.4720 C   0  0  0  0  0  0  0  0  0  0  0  0
    1.1670    1.6140   51.4380 C   0  0  0  0  0  0  0  0  0  0  0  0
    2.7140    7.0730   51.6450 C   0  0  0  0  0  0  0  0  0  0  0  0
    5.6850   12.6710   57.8260 C   0  0  0  0  0  0  0  0  0  0  0  0
    3.5910    8.9770   52.8720 N   0  0  0  0  0  0  0  0  0  0  0  0
    1.8150    2.8430   51.0510 N   0  0  0  0  0  0  0  0  0  0  0  0
    0.5530    4.7570   51.6270 O   0  0  0  0  0  0  0  0  0  0  0  0
    3.1340    7.0720   54.0280 O   0  0  0  0  0  0  0  0  0  0  0  0
    3.4200    5.8780   51.2460 O   0  0  0  0  0  0  0  0  0  0  0  0
    5.9440   12.5770   56.4120 O   0  0  0  0  0  0  0  0  0  0  0  0
  1  3  2  0
  1  4  1  0
  2  5  2  0
  2  6  1  0
  3  7  1  0
  4  8  2  0
  5 11  1  0
  6 14  2  0
  7 15  2  0
  8 15  1  0
  9 12  2  0
  9 16  1  0
 10 13  1  0
 10 16  2  0
 11 18  2  0
 12 17  1  0
 13 17  2  0
 14 18  1  0
 14 19  1  0
 15 22  1  0
 16 25  1  0
 17 30  1  0
 18 29  1  0
 19 26  1  0
 19 27  2  0
 20 23  1  0
 20 25  1  0
 20 28  2  0
 21 24  1  0
 22 26  1  0
 23 29  1  0
 24 30  1  0
M  END
>  <washed_aromatic_smiles>  (906) 
CCOc1ccc(cc1)NC(=O)COc2ccccc2C(=O)NCc3ccccc3

>  <name>  (906) 
neg21473

$$$$
neg181545
     RDKit          3D

 26 28  0  0  0  0  0  0  0  0999 V2000
    2.4430    8.8570   55.6030 C   0  0  0  0  0  0  0  0  0  0  0  0
    4.7470    9.2850   55.0480 C   0  0  0  0  0  0  0  0  0  0  0  0
    2.1870    8.4570   54.2930 C   0  0  0  0  0  0  0  0  0  0  0  0
    4.4880    8.9640   53.7300 C   0  0  0  0  0  0  0  0  0  0  0  0
    2.8340    3.8280   52.1480 C   0  0  0  0  0  0  0  0  0  0  0  0
    1.5460    4.4310   50.1950 C   0  0  0  0  0  0  0  0  0  0  0  0
    2.8880    2.5110   51.7270 C   0  0  0  0  0  0  0  0  0  0  0  0
    1.5890    3.1030   49.7690 C   0  0  0  0  0  0  0  0  0  0  0  0
    4.6580   12.0310   56.4640 C   0  0  0  0  0  0  0  0  0  0  0  0
    5.3380   11.4700   58.6620 C   0  0  0  0  0  0  0  0  0  0  0  0
    5.2890   13.2570   56.6190 C   0  0  0  0  0  0  0  0  0  0  0  0
    5.9380   12.7240   58.7550 C   0  0  0  0  0  0  0  0  0  0  0  0
    3.7230    9.2660   55.9880 C   0  0  0  0  0  0  0  0  0  0  0  0
    4.6810   11.1000   57.4980 C   0  0  0  0  0  0  0  0  0  0  0  0
    3.2170    8.5290   53.3560 C   0  0  0  0  0  0  0  0  0  0  0  0
    2.1430    4.7740   51.4130 C   0  0  0  0  0  0  0  0  0  0  0  0
    2.2150    2.1400   50.5650 C   0  0  0  0  0  0  0  0  0  0  0  0
    2.8050    7.0810   51.3240 C   0  0  0  0  0  0  0  0  0  0  0  0
    1.7640   -0.4180   52.3550 C   0  0  0  0  0  0  0  0  0  0  0  0
    4.0170    9.7330   57.3960 C   0  0  0  0  0  0  0  0  0  0  0  0
    2.5210   -0.3260   51.0240 C   0  0  0  0  0  0  0  0  0  0  0  0
    5.9170   13.5890   57.7450 N   0  0  0  0  0  0  0  0  0  0  0  0
    3.0050    8.2810   51.9870 N   0  0  0  0  0  0  0  0  0  0  0  0
    2.1150    6.0810   51.9490 N   0  0  0  0  0  0  0  0  0  0  0  0
    3.2590    6.9240   50.1890 O   0  0  0  0  0  0  0  0  0  0  0  0
    2.1270    0.8120   50.1970 O   0  0  0  0  0  0  0  0  0  0  0  0
  1  3  2  0
  1 13  1  0
  2  4  1  0
  2 13  2  0
  3 15  1  0
  4 15  2  0
  5  7  2  0
  5 16  1  0
  6  8  1  0
  6 16  2  0
  7 17  1  0
  8 17  2  0
  9 11  2  0
  9 14  1  0
 10 12  1  0
 10 14  2  0
 11 22  1  0
 12 22  2  0
 13 20  1  0
 14 20  1  0
 15 23  1  0
 16 24  1  0
 17 26  1  0
 18 23  1  0
 18 24  1  0
 18 25  2  0
 19 21  1  0
 21 26  1  0
M  END
>  <washed_aromatic_smiles>  (907) 
CCOc1ccc(cc1)NC(=O)Nc2ccc(cc2)Cc3ccncc3

>  <name>  (907) 
neg181545

$$$$
neg105658
     RDKit          3D

 27 29  0  0  0  0  0  0  0  0999 V2000
    0.5010    2.1730   47.2250 C   0  0  0  0  0  0  0  0  0  0  0  0
    0.3120    0.8580   47.6110 C   0  0  0  0  0  0  0  0  0  0  0  0
    2.3950    1.0960   54.9700 C   0  0  0  0  0  0  0  0  0  0  0  0
    1.0820    3.0950   48.0900 C   0  0  0  0  0  0  0  0  0  0  0  0
    1.7310    0.8060   53.7910 C   0  0  0  0  0  0  0  0  0  0  0  0
    0.6790    0.4410   48.8720 C   0  0  0  0  0  0  0  0  0  0  0  0
    2.6900    6.8630   51.1860 C   0  0  0  0  0  0  0  0  0  0  0  0
    0.6950    6.1540   52.3650 C   0  0  0  0  0  0  0  0  0  0  0  0
    2.9050    7.8410   52.1550 C   0  0  0  0  0  0  0  0  0  0  0  0
    0.9610    7.0900   53.3610 C   0  0  0  0  0  0  0  0  0  0  0  0
    3.3260    0.1900   55.4420 C   0  0  0  0  0  0  0  0  0  0  0  0
    2.9790   -1.1730   53.6120 C   0  0  0  0  0  0  0  0  0  0  0  0
    2.1680   -0.2380   53.0050 C   0  0  0  0  0  0  0  0  0  0  0  0
    1.4310    2.7240   49.3970 C   0  0  0  0  0  0  0  0  0  0  0  0
    1.5890    6.0130   51.2990 C   0  0  0  0  0  0  0  0  0  0  0  0
    1.2370    1.3660   49.7580 C   0  0  0  0  0  0  0  0  0  0  0  0
    2.0760    7.9060   53.2680 C   0  0  0  0  0  0  0  0  0  0  0  0
    1.8840   -0.2580   51.5790 C   0  0  0  0  0  0  0  0  0  0  0  0
    1.8930    3.7320   50.3660 C   0  0  0  0  0  0  0  0  0  0  0  0
    3.8130    9.5260   56.1430 C   0  0  0  0  0  0  0  0  0  0  0  0
    3.6930    9.1410   54.6680 C   0  0  0  0  0  0  0  0  0  0  0  0
    3.5450   -0.9460   54.7950 N   0  0  0  0  0  0  0  0  0  0  0  0
    1.3680    5.0170   50.3060 N   0  0  0  0  0  0  0  0  0  0  0  0
    1.5390    0.9760   51.0650 N   0  0  0  0  0  0  0  0  0  0  0  0
    2.0530   -1.2220   50.8470 O   0  0  0  0  0  0  0  0  0  0  0  0
    2.6840    3.4950   51.2740 O   0  0  0  0  0  0  0  0  0  0  0  0
    2.3410    8.7570   54.3230 O   0  0  0  0  0  0  0  0  0  0  0  0
  1  2  2  0
  1  4  1  0
  2  6  1  0
  3  5  2  0
  3 11  1  0
  4 14  2  0
  5 13  1  0
  6 16  2  0
  7  9  2  0
  7 15  1  0
  8 10  1  0
  8 15  2  0
  9 17  1  0
 10 17  2  0
 11 22  2  0
 12 13  2  0
 12 22  1  0
 13 18  1  0
 14 16  1  0
 14 19  1  0
 15 23  1  0
 16 24  1  0
 17 27  1  0
 18 24  1  0
 18 25  2  0
 19 23  1  0
 19 26  2  0
 20 21  1  0
 21 27  1  0
M  END
>  <washed_aromatic_smiles>  (908) 
CCOc1ccc(cc1)NC(=O)c2ccccc2NC(=O)c3cccnc3

>  <name>  (908) 
neg105658

$$$$
neg221951
     RDKit          3D

 27 29  0  0  0  0  0  0  0  0999 V2000
    2.1710    8.8680   55.6080 C   0  0  0  0  0  0  0  0  0  0  0  0
    1.0490    8.5100   54.8640 C   0  0  0  0  0  0  0  0  0  0  0  0
    3.4410    8.5540   55.1400 C   0  0  0  0  0  0  0  0  0  0  0  0
    1.1950    7.8690   53.6430 C   0  0  0  0  0  0  0  0  0  0  0  0
    3.5850    7.8970   53.9240 C   0  0  0  0  0  0  0  0  0  0  0  0
    1.9010    4.3120   48.6590 C   0  0  0  0  0  0  0  0  0  0  0  0
    2.2550    2.4650   50.1630 C   0  0  0  0  0  0  0  0  0  0  0  0
    1.8390   -0.9890   50.4070 C   0  0  0  0  0  0  0  0  0  0  0  0
   -0.0660    0.4960   50.5970 C   0  0  0  0  0  0  0  0  0  0  0  0
    2.5130    5.1540   49.5750 C   0  0  0  0  0  0  0  0  0  0  0  0
    2.7260    3.3320   51.1360 C   0  0  0  0  0  0  0  0  0  0  0  0
    2.0630   -0.8990   51.7720 C   0  0  0  0  0  0  0  0  0  0  0  0
    0.1580    0.5860   51.9620 C   0  0  0  0  0  0  0  0  0  0  0  0
    2.4650    7.5650   53.1640 C   0  0  0  0  0  0  0  0  0  0  0  0
    1.7000    2.9680   48.9800 C   0  0  0  0  0  0  0  0  0  0  0  0
    0.8140   -0.2480   49.8110 C   0  0  0  0  0  0  0  0  0  0  0  0
    2.8030    4.6890   50.8540 C   0  0  0  0  0  0  0  0  0  0  0  0
    1.2290   -0.0910   52.5450 C   0  0  0  0  0  0  0  0  0  0  0  0
    0.8040    0.9480   47.5780 C   0  0  0  0  0  0  0  0  0  0  0  0
    3.0870    1.1550   55.3230 C   0  0  0  0  0  0  0  0  0  0  0  0
    2.5920    6.9080   51.8130 C   0  0  0  0  0  0  0  0  0  0  0  0
    2.6900   -0.1120   54.5780 C   0  0  0  0  0  0  0  0  0  0  0  0
    0.8490    2.2600   48.0790 N   0  0  0  0  0  0  0  0  0  0  0  0
    0.7540   -0.1950   48.4070 N   0  0  0  0  0  0  0  0  0  0  0  0
    3.1470    5.5660   51.8650 O   0  0  0  0  0  0  0  0  0  0  0  0
    1.4220    0.0480   53.9020 O   0  0  0  0  0  0  0  0  0  0  0  0
    0.7490    0.7660   45.9100 S   0  0  0  0  0  0  0  0  0  0  0  0
  1  2  2  0
  1  3  1  0
  2  4  1  0
  3  5  2  0
  4 14  2  0
  5 14  1  0
  6 10  2  0
  6 15  1  0
  7 11  1  0
  7 15  2  0
  8 12  2  0
  8 16  1  0
  9 13  1  0
  9 16  2  0
 10 17  1  0
 11 17  2  0
 12 18  1  0
 13 18  2  0
 14 21  1  0
 15 23  1  0
 16 24  1  0
 17 25  1  0
 18 26  1  0
 19 23  1  0
 19 24  1  0
 19 27  2  0
 20 22  1  0
 21 25  1  0
 22 26  1  0
M  END
>  <washed_aromatic_smiles>  (909) 
CCOc1ccc(cc1)NC(=S)Nc2ccc(cc2)OCc3ccccc3

>  <name>  (909) 
neg221951

$$$$
neg68423
     RDKit          3D

 26 28  0  0  0  0  0  0  0  0999 V2000
    4.7820   10.4840   54.1810 C   0  0  0  0  0  0  0  0  0  0  0  0
    3.2130    9.4160   55.6940 C   0  0  0  0  0  0  0  0  0  0  0  0
    4.3320    9.6680   53.1560 C   0  0  0  0  0  0  0  0  0  0  0  0
    2.7690    8.5960   54.6650 C   0  0  0  0  0  0  0  0  0  0  0  0
    1.8090    3.5990   49.2940 C   0  0  0  0  0  0  0  0  0  0  0  0
    2.3460    2.5440   51.4160 C   0  0  0  0  0  0  0  0  0  0  0  0
    1.0200    2.5070   48.9520 C   0  0  0  0  0  0  0  0  0  0  0  0
    1.5160    1.4770   51.0990 C   0  0  0  0  0  0  0  0  0  0  0  0
    4.2360   10.3540   55.4670 C   0  0  0  0  0  0  0  0  0  0  0  0
    3.3430    8.7120   53.3970 C   0  0  0  0  0  0  0  0  0  0  0  0
    2.3980    3.6430   50.5610 C   0  0  0  0  0  0  0  0  0  0  0  0
    0.8020    1.5020   49.9030 C   0  0  0  0  0  0  0  0  0  0  0  0
    2.0940    6.8700   52.1490 C   0  0  0  0  0  0  0  0  0  0  0  0
    5.9520   12.5580   58.8620 C   0  0  0  0  0  0  0  0  0  0  0  0
    5.8310   13.2240   57.4830 C   0  0  0  0  0  0  0  0  0  0  0  0
    5.2380   11.2030   58.9610 C   0  0  0  0  0  0  0  0  0  0  0  0
    5.5660   12.3080   56.2740 C   0  0  0  0  0  0  0  0  0  0  0  0
    5.1610   10.3820   57.6790 C   0  0  0  0  0  0  0  0  0  0  0  0
    1.0780   -0.7590   48.1720 C   0  0  0  0  0  0  0  0  0  0  0  0
    2.2340    6.0530   50.8800 C   0  0  0  0  0  0  0  0  0  0  0  0
   -0.2790   -0.1780   48.4820 C   0  0  0  0  0  0  0  0  0  0  0  0
    4.6750   11.1650   56.5480 N   0  0  0  0  0  0  0  0  0  0  0  0
    3.0260    7.8650   52.2980 N   0  0  0  0  0  0  0  0  0  0  0  0
    1.2080    6.6840   52.9610 O   0  0  0  0  0  0  0  0  0  0  0  0
    2.9650    4.8030   51.0420 O   0  0  0  0  0  0  0  0  0  0  0  0
   -0.1820    0.5460   49.7160 O   0  0  0  0  0  0  0  0  0  0  0  0
  1  3  2  0
  1  9  1  0
  2  4  1  0
  2  9  2  0
  3 10  1  0
  4 10  2  0
  5  7  2  0
  5 11  1  0
  6  8  1  0
  6 11  2  0
  7 12  1  0
  8 12  2  0
  9 22  1  0
 10 23  1  0
 11 25  1  0
 12 26  1  0
 13 20  1  0
 13 23  1  0
 13 24  2  0
 14 15  1  0
 14 16  1  0
 15 17  1  0
 16 18  1  0
 17 22  1  0
 18 22  1  0
 19 21  1  0
 20 25  1  0
 21 26  1  0
M  END
>  <washed_aromatic_smiles>  (910) 
CCOc1ccc(cc1)OCC(=O)Nc2ccc(cc2)N3CCCCC3

>  <name>  (910) 
neg68423

$$$$
neg263570
     RDKit          3D

 28 31  0  0  0  0  0  0  0  0999 V2000
    1.3570    1.6780   51.3120 C   0  0  0  0  0  0  0  0  0  0  0  0
    0.2310    0.8710   51.2750 C   0  0  0  0  0  0  0  0  0  0  0  0
    3.1210    9.1020   56.9790 C   0  0  0  0  0  0  0  0  0  0  0  0
    5.2600    8.6280   55.9600 C   0  0  0  0  0  0  0  0  0  0  0  0
    2.4880    8.8340   55.7750 C   0  0  0  0  0  0  0  0  0  0  0  0
    4.6190    8.3710   54.7560 C   0  0  0  0  0  0  0  0  0  0  0  0
    1.2930    1.9810   48.9010 C   0  0  0  0  0  0  0  0  0  0  0  0
    1.8060    2.3120   50.1510 C   0  0  0  0  0  0  0  0  0  0  0  0
   -0.3280    0.6410   50.0340 C   0  0  0  0  0  0  0  0  0  0  0  0
    0.2650    1.0680   48.8680 C   0  0  0  0  0  0  0  0  0  0  0  0
    4.5080    9.0360   57.0520 C   0  0  0  0  0  0  0  0  0  0  0  0
    3.2320    8.4930   54.6480 C   0  0  0  0  0  0  0  0  0  0  0  0
    1.5540    5.2770   50.6110 C   0  0  0  0  0  0  0  0  0  0  0  0
    2.9330    4.5340   52.2880 C   0  0  0  0  0  0  0  0  0  0  0  0
    1.6500    6.6630   51.2820 C   0  0  0  0  0  0  0  0  0  0  0  0
    3.3260    5.8870   52.8390 C   0  0  0  0  0  0  0  0  0  0  0  0
   -1.3410   -0.3170   48.3880 C   0  0  0  0  0  0  0  0  0  0  0  0
    5.1060   11.8570   57.5160 C   0  0  0  0  0  0  0  0  0  0  0  0
    2.9310    3.2720   50.2330 C   0  0  0  0  0  0  0  0  0  0  0  0
    4.9760   10.8130   58.6330 C   0  0  0  0  0  0  0  0  0  0  0  0
    2.7930    4.5730   50.8570 N   0  0  0  0  0  0  0  0  0  0  0  0
    2.2370    6.8380   52.6290 N   0  0  0  0  0  0  0  0  0  0  0  0
    1.1910    9.0660   53.1180 O   0  0  0  0  0  0  0  0  0  0  0  0
    3.3990    9.0080   52.1410 O   0  0  0  0  0  0  0  0  0  0  0  0
   -1.4840    0.0460   49.7870 O   0  0  0  0  0  0  0  0  0  0  0  0
   -0.3070    0.5180   47.7780 O   0  0  0  0  0  0  0  0  0  0  0  0
    5.1680    9.4450   58.1780 O   0  0  0  0  0  0  0  0  0  0  0  0
    2.4650    8.4310   53.0380 S   0  0  0  0  0  0  0  0  0  0  0  0
  1  2  2  0
  1  8  1  0
  2  9  1  0
  3  5  2  0
  3 11  1  0
  4  6  1  0
  4 11  2  0
  5 12  1  0
  6 12  2  0
  7  8  2  0
  7 10  1  0
  8 19  1  0
  9 10  2  0
  9 25  1  0
 10 26  1  0
 11 27  1  0
 12 28  1  0
 13 15  1  0
 13 21  1  0
 14 16  1  0
 14 21  1  0
 15 22  1  0
 16 22  1  0
 17 25  1  0
 17 26  1  0
 18 20  1  0
 19 21  1  0
 20 27  1  0
 22 28  1  0
 23 28  2  0
 24 28  2  0
M  END
>  <washed_aromatic_smiles>  (911) 
CCOc1ccc(cc1)S(=O)(=O)N2CCN(CC2)Cc3ccc4c(c3)OCO4

>  <name>  (911) 
neg263570

$$$$
neg169099
     RDKit          3D

 26 28  0  0  0  0  0  0  0  0999 V2000
    0.1440    1.8110   46.7130 C   0  0  0  0  0  0  0  0  0  0  0  0
   -0.5370    0.7430   47.2890 C   0  0  0  0  0  0  0  0  0  0  0  0
    1.1940    2.3740   47.3980 C   0  0  0  0  0  0  0  0  0  0  0  0
   -0.0790    0.1530   48.4250 C   0  0  0  0  0  0  0  0  0  0  0  0
    3.5830    1.0790   54.3000 C   0  0  0  0  0  0  0  0  0  0  0  0
    1.2550    1.0060   54.2090 C   0  0  0  0  0  0  0  0  0  0  0  0
    3.6190    0.7920   52.9530 C   0  0  0  0  0  0  0  0  0  0  0  0
    1.2620    0.4850   52.9500 C   0  0  0  0  0  0  0  0  0  0  0  0
    1.6090    1.9030   48.6610 C   0  0  0  0  0  0  0  0  0  0  0  0
    1.0820    0.6270   49.0780 C   0  0  0  0  0  0  0  0  0  0  0  0
    2.4100    1.2760   54.9260 C   0  0  0  0  0  0  0  0  0  0  0  0
    2.4770    0.3470   52.3500 C   0  0  0  0  0  0  0  0  0  0  0  0
    2.4310    2.7790   49.4800 C   0  0  0  0  0  0  0  0  0  0  0  0
    1.1710    5.3970   50.6120 C   0  0  0  0  0  0  0  0  0  0  0  0
    2.6290    5.7760   50.8820 C   0  0  0  0  0  0  0  0  0  0  0  0
    1.2400    4.7580   49.2190 C   0  0  0  0  0  0  0  0  0  0  0  0
    3.3450    5.1640   49.6790 C   0  0  0  0  0  0  0  0  0  0  0  0
    4.8000    2.3040   57.3500 C   0  0  0  0  0  0  0  0  0  0  0  0
    3.5940    1.3830   57.1960 C   0  0  0  0  0  0  0  0  0  0  0  0
    2.5090    4.1220   49.0990 N   0  0  0  0  0  0  0  0  0  0  0  0
    1.5640   -0.2080   49.9520 N   0  0  0  0  0  0  0  0  0  0  0  0
    2.9530    2.4800   50.5520 O   0  0  0  0  0  0  0  0  0  0  0  0
    2.2190   -1.9650   51.5450 O   0  0  0  0  0  0  0  0  0  0  0  0
    3.9820   -0.6180   50.5570 O   0  0  0  0  0  0  0  0  0  0  0  0
    2.5260    1.7930   56.2130 O   0  0  0  0  0  0  0  0  0  0  0  0
    2.6360   -0.7170   51.0230 S   0  0  2  0  0  0  0  0  0  0  0  0
  1  2  2  0
  1  3  1  0
  2  4  1  0
  3  9  2  0
  4 10  2  0
  5  7  2  0
  5 11  1  0
  6  8  1  0
  6 11  2  0
  7 12  1  0
  8 12  2  0
  9 10  1  0
  9 13  1  0
 10 21  1  0
 11 25  1  0
 12 26  1  0
 13 20  1  0
 13 22  2  0
 14 15  1  0
 14 16  1  0
 15 17  1  0
 16 20  1  0
 17 20  1  0
 18 19  1  0
 19 25  1  0
 21 26  2  0
 23 26  2  0
 26 24  1  6
M  CHG  1  24  -1
M  END
>  <washed_aromatic_smiles>  (912) 
CCOc1ccc(cc1)S(=O)(=O)Nc2ccccc2C(=O)N3CCCC3

>  <name>  (912) 
neg169099

$$$$
neg254531
     RDKit          3D

 25 25  0  0  0  0  0  0  0  0999 V2000
    1.0910    8.1760   54.6110 C   0  0  0  0  0  0  0  0  0  0  0  0
    1.3160    7.7030   53.3230 C   0  0  0  0  0  0  0  0  0  0  0  0
    3.1330    9.4450   54.5180 C   0  0  0  0  0  0  0  0  0  0  0  0
    2.0450    8.9750   55.2530 C   0  0  0  0  0  0  0  0  0  0  0  0
    2.4840    8.0650   52.6570 C   0  0  0  0  0  0  0  0  0  0  0  0
    3.3360    9.0220   53.2150 C   0  0  0  0  0  0  0  0  0  0  0  0
    4.0950    7.8180   57.0390 C   0  0  0  0  0  0  0  0  0  0  0  0
   -0.3840    8.8240   57.5860 C   0  0  0  0  0  0  0  0  0  0  0  0
    7.2690    6.7040   58.9120 C   0  0  0  0  0  0  0  0  0  0  0  0
    6.1640    8.9840   59.0840 C   0  0  0  0  0  0  0  0  0  0  0  0
   -3.3270    7.6760   60.0130 C   0  0  0  0  0  0  0  0  0  0  0  0
   -2.7120    6.4770   57.9630 C   0  0  0  0  0  0  0  0  0  0  0  0
    2.4020    6.1200   51.1110 C   0  0  0  0  0  0  0  0  0  0  0  0
    5.3800   10.4790   52.9560 C   0  0  0  0  0  0  0  0  0  0  0  0
    4.9450    7.1000   58.0860 C   0  0  0  0  0  0  0  0  0  0  0  0
   -1.1800    8.2850   58.8040 C   0  0  0  0  0  0  0  0  0  0  0  0
    2.0600    9.3110   56.7470 C   0  0  0  0  0  0  0  0  0  0  0  0
    6.3250    7.7180   58.2480 C   0  0  0  0  0  0  0  0  0  0  0  0
   -2.6420    7.8230   58.6360 C   0  0  0  0  0  0  0  0  0  0  0  0
    3.3280    8.8730   57.3990 N   0  0  0  0  0  0  0  0  0  0  0  0
    0.9480    8.8460   57.6110 N   0  0  0  0  0  0  0  0  0  0  0  0
    4.1100    7.3270   55.9230 O   0  0  0  0  0  0  0  0  0  0  0  0
   -0.9630    9.3670   56.6980 O   0  0  0  0  0  0  0  0  0  0  0  0
    2.8410    7.4450   51.4800 O   0  0  0  0  0  0  0  0  0  0  0  0
    4.3890    9.5370   52.4910 O   0  0  0  0  0  0  0  0  0  0  0  0
  1  2  2  0
  1  4  1  0
  2  5  1  0
  3  4  2  0
  3  6  1  0
  4 17  1  0
  5  6  2  0
  5 24  1  0
  6 25  1  0
  7 15  1  0
  7 20  1  0
  7 22  2  0
  8 16  1  0
  8 21  1  0
  8 23  2  0
  9 18  1  0
 10 18  1  0
 11 19  1  0
 12 19  1  0
 13 24  1  0
 14 25  1  0
 15 18  1  0
 16 19  1  0
 17 20  1  0
 17 21  1  0
M  END
>  <washed_aromatic_smiles>  (913) 
CC(C)CC(=O)NC(c1ccc(c(c1)OC)OC)NC(=O)CC(C)C

>  <name>  (913) 
neg254531

$$$$
neg137241
     RDKit          3D

 36 36  0  0  1  0  0  0  0  0999 V2000
    3.6580    6.2780   48.9810 C   0  0  0  0  0  0  0  0  0  0  0  0
    2.6240    5.1250   50.3700 C   0  0  0  0  0  0  0  0  0  0  0  0
    2.7650    6.3540   50.9540 C   0  0  0  0  0  0  0  0  0  0  0  0
    1.7130    4.1510   50.8530 C   0  0  0  0  0  0  0  0  0  0  0  0
    2.3550    6.9290   52.2210 C   0  0  0  0  0  0  0  0  0  0  0  0
    0.8730    0.7400   51.7690 C   0  0  0  0  0  0  0  0  0  0  0  0
    5.6200   11.3190   58.9810 C   0  0  0  0  0  0  0  0  0  0  0  0
    0.9250   -0.8670   48.6410 C   0  0  0  0  0  0  0  0  0  0  0  0
    0.5530    0.9200   46.9500 C   0  0  0  0  0  0  0  0  0  0  0  0
    3.1510    0.1570   54.4240 C   0  0  0  0  0  0  0  0  0  0  0  0
    2.4820   -1.3260   52.5800 C   0  0  0  0  0  0  0  0  0  0  0  0
    3.8610    0.6840   51.9120 C   0  0  0  0  0  0  0  0  0  0  0  0
    6.2670   14.1660   61.2530 C   0  0  0  0  0  0  0  0  0  0  0  0
    8.3860   13.6160   60.0280 C   0  0  0  0  0  0  0  0  0  0  0  0
    6.5410   14.6970   58.7990 C   0  0  0  0  0  0  0  0  0  0  0  0
    4.1890    9.9840   55.5470 C   0  0  0  0  0  0  0  0  0  0  0  0
    4.0890    9.2410   54.2060 C   0  0  0  0  0  0  0  0  0  0  0  0
    4.9670   11.3130   55.4200 C   0  0  0  0  0  0  0  0  0  0  0  0
    0.2380    1.4040   49.3840 C   0  0  0  0  0  0  0  0  0  0  0  0
    3.2460    7.9640   54.3340 C   0  0  0  0  0  0  0  0  0  0  0  0
    5.0360   12.1670   56.7040 C   0  0  0  0  0  0  0  0  0  0  0  0
    0.8340    1.8170   50.7470 C   0  0  2  0  0  0  0  0  0  0  0  0
    1.0510    0.6310   48.3790 C   0  0  0  0  0  0  0  0  0  0  0  0
    2.8350    0.1210   52.9200 C   0  0  0  0  0  0  0  0  0  0  0  0
    6.8490   13.7020   59.8940 C   0  0  0  0  0  0  0  0  0  0  0  0
    3.2470    5.0670   49.1630 N   0  0  0  0  0  0  0  0  0  0  0  0
    3.3770    7.0710   50.0280 N   0  0  0  0  0  0  0  0  0  0  0  0
    1.9240    2.8040   50.6330 N   0  0  0  0  0  0  0  0  0  0  0  0
    3.3470    7.1160   53.1490 N   0  0  0  0  0  0  0  0  0  0  0  0
    4.7600   11.4200   57.9290 N   0  0  0  0  0  0  0  0  0  0  0  0
    0.7130    4.5500   51.4180 O   0  0  0  0  0  0  0  0  0  0  0  0
    1.2020    7.2610   52.4900 O   0  0  0  0  0  0  0  0  0  0  0  0
   -0.1020    0.0270   51.9560 O   0  0  0  0  0  0  0  0  0  0  0  0
    5.8530   10.2230   59.4670 O   0  0  0  0  0  0  0  0  0  0  0  0
    1.6950    0.9350   52.7800 O   0  0  0  0  0  0  0  0  0  0  0  0
    6.2410   12.4440   59.4450 O   0  0  0  0  0  0  0  0  0  0  0  0
  1 26  2  0
  1 27  1  0
  2  3  2  0
  2  4  1  0
  2 26  1  0
  3  5  1  0
  3 27  1  0
  4 28  1  0
  4 31  2  0
  5 29  1  0
  5 32  2  0
  6 22  1  0
  6 33  2  0
  6 35  1  0
  7 30  1  0
  7 34  2  0
  7 36  1  0
  8 23  1  0
  9 23  1  0
 10 24  1  0
 11 24  1  0
 12 24  1  0
 13 25  1  0
 14 25  1  0
 15 25  1  0
 16 17  1  0
 16 18  1  0
 17 20  1  0
 18 21  1  0
 22 19  1  6
 19 23  1  0
 20 29  1  0
 21 30  1  0
 22 28  1  0
 24 35  1  0
 25 36  1  0
M  END
>  <washed_aromatic_smiles>  (914) 
CC(C)C[C@@H](C(=O)OC(C)(C)C)NC(=O)c1c([nH]cn1)C(=O)NCCCCCNC(=O)OC(C)(C)C

>  <name>  (914) 
neg137241

$$$$
neg112039
     RDKit          3D

 29 30  0  0  1  0  0  0  0  0999 V2000
    2.1950   -0.9030   50.9470 C   0  0  0  0  0  0  0  0  0  0  0  0
    3.4710   -0.3940   51.1760 C   0  0  0  0  0  0  0  0  0  0  0  0
    1.0770   -0.1010   51.1300 C   0  0  0  0  0  0  0  0  0  0  0  0
    3.6380    0.9210   51.5750 C   0  0  0  0  0  0  0  0  0  0  0  0
    1.2240    1.2030   51.5390 C   0  0  0  0  0  0  0  0  0  0  0  0
    3.5210    6.3890   48.7550 C   0  0  0  0  0  0  0  0  0  0  0  0
    2.5100    1.7270   51.6790 C   0  0  0  0  0  0  0  0  0  0  0  0
    2.8640    5.0360   50.2040 C   0  0  0  0  0  0  0  0  0  0  0  0
    3.0550    6.2240   50.8760 C   0  0  0  0  0  0  0  0  0  0  0  0
    2.2600    3.7970   50.5710 C   0  0  0  0  0  0  0  0  0  0  0  0
    3.0560    6.7570   52.2300 C   0  0  0  0  0  0  0  0  0  0  0  0
    4.1730   10.0760   53.4870 C   0  0  0  0  0  0  0  0  0  0  0  0
    5.3630    8.3090   55.5490 C   0  0  0  0  0  0  0  0  0  0  0  0
    3.6320    8.6610   57.2330 C   0  0  0  0  0  0  0  0  0  0  0  0
    5.0580   11.9800   56.6430 C   0  0  0  0  0  0  0  0  0  0  0  0
    6.2300   12.1220   54.4360 C   0  0  0  0  0  0  0  0  0  0  0  0
    4.1850   13.3040   54.7520 C   0  0  0  0  0  0  0  0  0  0  0  0
    2.7270    8.5090   54.8950 C   0  0  0  0  0  0  0  0  0  0  0  0
    3.0250    9.0660   53.4940 C   0  0  2  0  0  0  0  0  0  0  0  0
    3.8790    8.0650   55.8410 C   0  0  0  0  0  0  0  0  0  0  0  0
    4.9140   12.0250   55.1130 C   0  0  0  0  0  0  0  0  0  0  0  0
    3.2150    5.1560   48.8950 N   0  0  0  0  0  0  0  0  0  0  0  0
    3.4140    7.0550   49.9030 N   0  0  0  0  0  0  0  0  0  0  0  0
    2.6810    3.1150   51.6910 N   0  0  0  0  0  0  0  0  0  0  0  0
    2.9150    8.1340   52.3480 N   0  0  0  0  0  0  0  0  0  0  0  0
    1.4550    3.2650   49.8060 O   0  0  0  0  0  0  0  0  0  0  0  0
    3.2980    6.0810   53.2160 O   0  0  0  0  0  0  0  0  0  0  0  0
    4.9930   10.2140   52.5790 O   0  0  0  0  0  0  0  0  0  0  0  0
    4.2350   10.8480   54.6110 O   0  0  0  0  0  0  0  0  0  0  0  0
  1  2  2  0
  1  3  1  0
  2  4  1  0
  3  5  2  0
  4  7  2  0
  5  7  1  0
  6 22  2  0
  6 23  1  0
  7 24  1  0
  8  9  2  0
  8 10  1  0
  8 22  1  0
  9 11  1  0
  9 23  1  0
 10 24  1  0
 10 26  2  0
 11 25  1  0
 11 27  2  0
 12 19  1  0
 12 28  2  0
 12 29  1  0
 13 20  1  0
 14 20  1  0
 15 21  1  0
 16 21  1  0
 17 21  1  0
 19 18  1  1
 18 20  1  0
 19 25  1  0
 21 29  1  0
M  END
>  <washed_aromatic_smiles>  (915) 
CC(C)C[C@@H](C(=O)OC(C)(C)C)NC(=O)c1c(nc[nH]1)C(=O)Nc2ccccc2

>  <name>  (915) 
neg112039

$$$$
neg98606
     RDKit          3D

 25 26  0  0  0  0  0  0  0  0999 V2000
    3.5790    0.6880   56.1980 C   0  0  0  0  0  0  0  0  0  0  0  0
    1.4940    4.0040   48.0400 C   0  0  0  0  0  0  0  0  0  0  0  0
    3.0490    1.7910   55.5790 C   0  0  0  0  0  0  0  0  0  0  0  0
    3.6580   -0.5010   55.4950 C   0  0  0  0  0  0  0  0  0  0  0  0
    1.5300    2.6270   47.9380 C   0  0  0  0  0  0  0  0  0  0  0  0
    1.8300    4.6070   49.2290 C   0  0  0  0  0  0  0  0  0  0  0  0
    2.8090    1.7390   54.2160 C   0  0  0  0  0  0  0  0  0  0  0  0
    3.2640   -0.5770   54.1530 C   0  0  0  0  0  0  0  0  0  0  0  0
    1.8660    1.8710   49.0470 C   0  0  0  0  0  0  0  0  0  0  0  0
    2.0280    3.8840   50.4020 C   0  0  0  0  0  0  0  0  0  0  0  0
    2.9720    0.5960   53.4620 C   0  0  0  0  0  0  0  0  0  0  0  0
    1.9690    2.4640   50.3090 C   0  0  0  0  0  0  0  0  0  0  0  0
    2.3060    4.6920   51.5840 C   0  0  0  0  0  0  0  0  0  0  0  0
    2.4460    8.5100   54.4800 C   0  0  0  0  0  0  0  0  0  0  0  0
    0.4260    8.5160   52.9830 C   0  0  0  0  0  0  0  0  0  0  0  0
   -0.1980    0.1440   50.0520 C   0  0  0  0  0  0  0  0  0  0  0  0
    2.9190    0.7280   51.9270 C   0  0  0  0  0  0  0  0  0  0  0  0
    2.4150    7.0290   52.4550 C   0  0  0  0  0  0  0  0  0  0  0  0
    1.5570    7.6620   53.5600 C   0  0  0  0  0  0  0  0  0  0  0  0
    1.7470    5.9490   51.7090 N   0  0  0  0  0  0  0  0  0  0  0  0
    1.8220    1.5920   51.4250 N   0  0  0  0  0  0  0  0  0  0  0  0
    3.0830    4.3570   52.4470 O   0  0  0  0  0  0  0  0  0  0  0  0
   -0.6490    1.7930   51.9170 O   0  0  0  0  0  0  0  0  0  0  0  0
    0.4550   -0.2230   52.5500 O   0  0  0  0  0  0  0  0  0  0  0  0
    0.3170    0.8280   51.6140 S   0  0  0  0  0  0  0  0  0  0  0  0
  1  3  2  0
  1  4  1  0
  2  5  2  0
  2  6  1  0
  3  7  1  0
  4  8  2  0
  5  9  1  0
  6 10  2  0
  7 11  2  0
  8 11  1  0
  9 12  2  0
 10 12  1  0
 10 13  1  0
 11 17  1  0
 12 21  1  0
 13 20  1  0
 13 22  2  0
 14 19  1  0
 15 19  1  0
 16 25  1  0
 17 21  1  0
 18 19  1  0
 18 20  1  0
 21 25  1  0
 23 25  2  0
 24 25  2  0
M  END
>  <washed_aromatic_smiles>  (916) 
CC(C)CNC(=O)c1ccccc1N(Cc2ccccc2)S(=O)(=O)C

>  <name>  (916) 
neg98606

$$$$
neg217776
     RDKit          3D

 26 28  0  0  0  0  0  0  0  0999 V2000
    6.1510   11.5930   53.1390 C   0  0  0  0  0  0  0  0  0  0  0  0
    0.8340    8.9220   57.3650 C   0  0  0  0  0  0  0  0  0  0  0  0
    5.7820   10.7030   52.1550 C   0  0  0  0  0  0  0  0  0  0  0  0
    5.4860   11.5900   54.3480 C   0  0  0  0  0  0  0  0  0  0  0  0
    2.2140    9.0170   57.2160 C   0  0  0  0  0  0  0  0  0  0  0  0
    0.0450    8.6480   56.2720 C   0  0  0  0  0  0  0  0  0  0  0  0
    4.6820    9.8810   52.3440 C   0  0  0  0  0  0  0  0  0  0  0  0
    4.4050   10.7410   54.5360 C   0  0  0  0  0  0  0  0  0  0  0  0
    2.7870    8.8280   55.9810 C   0  0  0  0  0  0  0  0  0  0  0  0
    0.6080    8.5980   54.9940 C   0  0  0  0  0  0  0  0  0  0  0  0
    3.9430    9.8810   53.5130 C   0  0  0  0  0  0  0  0  0  0  0  0
    1.9890    8.7810   54.8460 C   0  0  0  0  0  0  0  0  0  0  0  0
    2.3390    3.5200   51.4410 C   0  0  0  0  0  0  0  0  0  0  0  0
    1.4890    5.9430   51.2560 C   0  0  0  0  0  0  0  0  0  0  0  0
    3.5270    5.4250   52.4810 C   0  0  0  0  0  0  0  0  0  0  0  0
    1.3420    7.1930   52.1660 C   0  0  0  0  0  0  0  0  0  0  0  0
    3.4160    6.6960   53.3140 C   0  0  0  0  0  0  0  0  0  0  0  0
    0.7210   -0.0210   48.4250 C   0  0  0  0  0  0  0  0  0  0  0  0
    0.7360    2.3330   47.5410 C   0  0  0  0  0  0  0  0  0  0  0  0
    1.0930    1.8290   50.0790 C   0  0  0  0  0  0  0  0  0  0  0  0
    2.6170    9.0230   53.4880 C   0  0  0  0  0  0  0  0  0  0  0  0
    1.2730    1.3970   48.6330 C   0  0  0  0  0  0  0  0  0  0  0  0
    2.3100    4.8880   51.8670 N   0  0  0  0  0  0  0  0  0  0  0  0
    2.6640    7.7630   52.6460 N   0  0  0  0  0  0  0  0  0  0  0  0
    1.5670    3.2170   50.3280 N   0  0  0  0  0  0  0  0  0  0  0  0
    3.1370    2.2920   52.2870 S   0  0  0  0  0  0  0  0  0  0  0  0
  1  3  2  0
  1  4  1  0
  2  5  2  0
  2  6  1  0
  3  7  1  0
  4  8  2  0
  5  9  1  0
  6 10  2  0
  7 11  2  0
  8 11  1  0
  9 12  2  0
 10 12  1  0
 11 21  1  0
 12 21  1  0
 13 23  1  0
 13 25  1  0
 13 26  2  0
 14 16  1  0
 14 23  1  0
 15 17  1  0
 15 23  1  0
 16 24  1  0
 17 24  1  0
 18 22  1  0
 19 22  1  0
 20 22  1  0
 20 25  1  0
 21 24  1  0
M  CHG  1  24   1
M  END
>  <washed_aromatic_smiles>  (917) 
CC(C)CNC(=S)N1CCN(CC1)C(c2ccccc2)c3ccccc3

>  <name>  (917) 
neg217776

$$$$
neg17654
     RDKit          3D

 36 37  0  0  0  0  0  0  0  0999 V2000
    2.6020    0.7400   51.3050 C   0  0  0  0  0  0  0  0  0  0  0  0
    0.5110    1.0000   50.2820 C   0  0  0  0  0  0  0  0  0  0  0  0
    0.8130    7.6340   52.6010 C   0  0  0  0  0  0  0  0  0  0  0  0
    3.0310    6.8040   52.9600 C   0  0  0  0  0  0  0  0  0  0  0  0
    2.3440   -0.7490   54.0990 C   0  0  0  0  0  0  0  0  0  0  0  0
    3.5540    8.9570   56.3120 C   0  0  0  0  0  0  0  0  0  0  0  0
    2.8780    2.1720   51.0070 C   0  0  0  0  0  0  0  0  0  0  0  0
    1.2330    1.8080   49.1920 C   0  0  0  0  0  0  0  0  0  0  0  0
    0.5370    6.3930   51.7820 C   0  0  0  0  0  0  0  0  0  0  0  0
    2.8170    5.6930   51.9480 C   0  0  0  0  0  0  0  0  0  0  0  0
    5.0660    1.6470   57.4210 C   0  0  0  0  0  0  0  0  0  0  0  0
    3.0170    2.5900   56.1360 C   0  0  0  0  0  0  0  0  0  0  0  0
    5.5440   13.3600   57.1030 C   0  0  0  0  0  0  0  0  0  0  0  0
    5.3570   12.5320   54.7240 C   0  0  0  0  0  0  0  0  0  0  0  0
    2.4220    4.0110   49.4380 C   0  0  0  0  0  0  0  0  0  0  0  0
    1.3310    4.7210   50.2660 C   0  0  0  0  0  0  0  0  0  0  0  0
    3.6160    0.3000   55.8490 C   0  0  0  0  0  0  0  0  0  0  0  0
    4.7380   11.0370   56.6950 C   0  0  0  0  0  0  0  0  0  0  0  0
    0.6350    0.1710   52.5940 C   0  0  0  0  0  0  0  0  0  0  0  0
    2.2900    8.7790   54.2110 C   0  0  0  0  0  0  0  0  0  0  0  0
    3.6530    1.4310   56.8690 C   0  0  0  0  0  0  0  0  0  0  0  0
    4.7670   12.4620   56.1380 C   0  0  0  0  0  0  0  0  0  0  0  0
    1.2650    0.4830   51.3230 N   0  0  0  0  0  0  0  0  0  0  0  0
    2.0220    7.7030   53.2600 N   0  0  0  0  0  0  0  0  0  0  0  0
    2.4700    2.5420   49.6330 N   0  0  0  0  0  0  0  0  0  0  0  0
    1.7050    5.9220   51.0210 N   0  0  0  0  0  0  0  0  0  0  0  0
    3.4380   -0.1220   51.4650 O   0  0  0  0  0  0  0  0  0  0  0  0
   -0.6840    0.8000   50.2790 O   0  0  0  0  0  0  0  0  0  0  0  0
    0.0220    8.5460   52.7060 O   0  0  0  0  0  0  0  0  0  0  0  0
    4.0810    6.9280   53.5330 O   0  0  0  0  0  0  0  0  0  0  0  0
    3.2310   -1.5430   53.9740 O   0  0  0  0  0  0  0  0  0  0  0  0
    3.9370    8.4760   57.3650 O   0  0  0  0  0  0  0  0  0  0  0  0
    2.3990    0.1970   55.0320 O   0  0  0  0  0  0  0  0  0  0  0  0
    3.9110   10.1820   55.8980 O   0  0  0  0  0  0  0  0  0  0  0  0
    1.2750   -0.8670   53.3150 O   0  0  0  0  0  0  0  0  0  0  0  0
    2.7370    8.2840   55.4940 O   0  0  0  0  0  0  0  0  0  0  0  0
  1  7  1  0
  1 23  1  0
  1 27  2  0
  2  8  1  0
  2 23  1  0
  2 28  2  0
  3  9  1  0
  3 24  1  0
  3 29  2  0
  4 10  1  0
  4 24  1  0
  4 30  2  0
  5 31  2  0
  5 33  1  0
  5 35  1  0
  6 32  2  0
  6 34  1  0
  6 36  1  0
  7 25  1  0
  8 25  1  0
  9 26  1  0
 10 26  1  0
 11 21  1  0
 12 21  1  0
 13 22  1  0
 14 22  1  0
 15 16  1  0
 15 25  1  0
 16 26  1  0
 17 21  1  0
 17 33  1  0
 18 22  1  0
 18 34  1  0
 19 23  1  0
 19 35  1  0
 20 24  1  0
 20 36  1  0
M  END
>  <washed_aromatic_smiles>  (918) 
CC(C)COC(=O)OCN1C(=O)CN(CC1=O)CCN2CC(=O)N(C(=O)C2)COC(=O)OCC(C)C

>  <name>  (918) 
neg17654

$$$$
neg50406
     RDKit          3D

 29 31  0  0  0  0  0  0  0  0999 V2000
    3.6720   -0.9220   54.9460 C   0  0  0  0  0  0  0  0  0  0  0  0
    2.8920    1.3160   55.1950 C   0  0  0  0  0  0  0  0  0  0  0  0
    4.4590   -0.7900   56.0900 C   0  0  0  0  0  0  0  0  0  0  0  0
    3.6820    1.4690   56.3280 C   0  0  0  0  0  0  0  0  0  0  0  0
    2.8800    0.1050   54.4880 C   0  0  0  0  0  0  0  0  0  0  0  0
    4.4700    0.4170   56.7830 C   0  0  0  0  0  0  0  0  0  0  0  0
    2.6840    5.9760   50.9890 C   0  0  0  0  0  0  0  0  0  0  0  0
    2.0930    4.8250   49.0540 C   0  0  0  0  0  0  0  0  0  0  0  0
   -0.0350    0.1950   49.5880 C   0  0  0  0  0  0  0  0  0  0  0  0
    1.6220    2.5960   48.3340 C   0  0  0  0  0  0  0  0  0  0  0  0
    2.5510   -0.9440   52.1540 C   0  0  0  0  0  0  0  0  0  0  0  0
    1.1930    0.8780   52.9710 C   0  0  0  0  0  0  0  0  0  0  0  0
    2.1210   -0.4380   50.7480 C   0  0  0  0  0  0  0  0  0  0  0  0
    0.1610    0.5200   51.9270 C   0  0  0  0  0  0  0  0  0  0  0  0
    1.6120    7.9050   54.1610 C   0  0  0  0  0  0  0  0  0  0  0  0
    3.2000    8.9440   52.5790 C   0  0  0  0  0  0  0  0  0  0  0  0
    2.7490    6.4670   52.4170 C   0  0  0  0  0  0  0  0  0  0  0  0
    0.4910    0.2770   48.1560 C   0  0  0  0  0  0  0  0  0  0  0  0
    0.6840    1.6930   47.5710 C   0  0  0  0  0  0  0  0  0  0  0  0
    2.1480    7.8460   52.7280 C   0  0  0  0  0  0  0  0  0  0  0  0
    3.5740    6.0890   50.0480 N   0  0  0  0  0  0  0  0  0  0  0  0
    3.2400    5.4120   48.8960 N   0  0  0  0  0  0  0  0  0  0  0  0
    2.0780   -0.1640   53.3310 N   0  0  0  0  0  0  0  0  0  0  0  0
    0.7620    0.1330   50.6670 N   0  0  0  0  0  0  0  0  0  0  0  0
    1.4890    3.9420   48.1560 N   0  0  0  0  0  0  0  0  0  0  0  0
   -1.2500    0.1890   49.7400 O   0  0  0  0  0  0  0  0  0  0  0  0
    2.4790    2.1810   49.0880 O   0  0  0  0  0  0  0  0  0  0  0  0
    1.3220    5.0570   50.5480 S   0  0  0  0  0  0  0  0  0  0  0  0
    5.4520    0.6080   58.1950 Cl  0  0  0  0  0  0  0  0  0  0  0  0
  1  3  2  0
  1  5  1  0
  2  4  1  0
  2  5  2  0
  3  6  1  0
  4  6  2  0
  5 23  1  0
  6 29  1  0
  7 17  1  0
  7 21  2  0
  7 28  1  0
  8 22  2  0
  8 25  1  0
  8 28  1  0
  9 18  1  0
  9 24  1  0
  9 26  2  0
 10 19  1  0
 10 25  1  0
 10 27  2  0
 11 13  1  0
 11 23  1  0
 12 14  1  0
 12 23  1  0
 13 24  1  0
 14 24  1  0
 15 20  1  0
 16 20  1  0
 17 20  1  0
 18 19  1  0
 21 22  1  0
M  END
>  <washed_aromatic_smiles>  (919) 
CC(C)Cc1nnc(s1)NC(=O)CCC(=O)N2CCN(CC2)c3ccc(cc3)Cl

>  <name>  (919) 
neg50406

$$$$
neg263363
     RDKit          3D

 27 28  0  0  0  0  0  0  0  0999 V2000
    0.9450    0.8690   49.4460 C   0  0  0  0  0  0  0  0  0  0  0  0
    2.1520    2.8150   48.7020 C   0  0  0  0  0  0  0  0  0  0  0  0
    0.4500    0.6750   48.1650 C   0  0  0  0  0  0  0  0  0  0  0  0
    1.5840    2.6860   47.4620 C   0  0  0  0  0  0  0  0  0  0  0  0
    1.8150    1.9320   49.7100 C   0  0  0  0  0  0  0  0  0  0  0  0
    0.8100    1.5660   47.1580 C   0  0  0  0  0  0  0  0  0  0  0  0
    4.1830    9.6100   53.7770 C   0  0  0  0  0  0  0  0  0  0  0  0
    4.7640   10.9540   53.8530 C   0  0  0  0  0  0  0  0  0  0  0  0
    2.7180    6.2890   52.6420 C   0  0  0  0  0  0  0  0  0  0  0  0
    0.6530    5.9710   51.4460 C   0  0  0  0  0  0  0  0  0  0  0  0
    3.1610    4.9190   52.1160 C   0  0  0  0  0  0  0  0  0  0  0  0
    1.3620    4.8760   50.6390 C   0  0  0  0  0  0  0  0  0  0  0  0
    5.7060   12.8390   56.8560 C   0  0  0  0  0  0  0  0  0  0  0  0
    4.0000   10.9970   56.9230 C   0  0  0  0  0  0  0  0  0  0  0  0
    0.9590    7.9390   52.8210 C   0  0  0  0  0  0  0  0  0  0  0  0
    1.8950    8.7030   53.7770 C   0  0  0  0  0  0  0  0  0  0  0  0
    4.7590   11.9810   56.0210 C   0  0  0  0  0  0  0  0  0  0  0  0
    1.6180    6.9510   51.9470 N   0  0  0  0  0  0  0  0  0  0  0  0
    2.1810    4.0180   51.5060 N   0  0  0  0  0  0  0  0  0  0  0  0
    2.9750    9.4670   53.1380 N   0  0  0  0  0  0  0  0  0  0  0  0
    5.4710   11.2380   54.9890 N   0  0  0  0  0  0  0  0  0  0  0  0
    4.6680    8.6490   54.3800 O   0  0  0  0  0  0  0  0  0  0  0  0
    4.5400   11.8640   53.0580 O   0  0  0  0  0  0  0  0  0  0  0  0
    1.5420    1.5040   52.1950 O   0  0  0  0  0  0  0  0  0  0  0  0
    3.7540    1.9150   51.4340 O   0  0  0  0  0  0  0  0  0  0  0  0
    2.3880    2.2690   51.3420 S   0  0  0  0  0  0  0  0  0  0  0  0
    0.4800    1.1920   45.5120 Cl  0  0  0  0  0  0  0  0  0  0  0  0
  1  3  2  0
  1  5  1  0
  2  4  1  0
  2  5  2  0
  3  6  1  0
  4  6  2  0
  5 26  1  0
  6 27  1  0
  7  8  1  0
  7 20  1  0
  7 22  2  0
  8 21  1  0
  8 23  2  0
  9 11  1  0
  9 18  1  0
 10 12  1  0
 10 18  1  0
 11 19  1  0
 12 19  1  0
 13 17  1  0
 14 17  1  0
 15 16  1  0
 15 18  1  0
 16 20  1  0
 17 21  1  0
 19 26  1  0
 24 26  2  0
 25 26  2  0
M  END
>  <washed_aromatic_smiles>  (920) 
CC(C)NC(=O)C(=O)NCCN1CCN(CC1)S(=O)(=O)c2ccc(cc2)Cl

>  <name>  (920) 
neg263363

$$$$
neg63036
     RDKit          3D

 28 30  0  0  0  0  0  0  0  0999 V2000
    1.9240   -0.5220   54.5390 C   0  0  0  0  0  0  0  0  0  0  0  0
    0.9970   -0.7260   53.5380 C   0  0  0  0  0  0  0  0  0  0  0  0
    2.8960    1.2510   53.2710 C   0  0  0  0  0  0  0  0  0  0  0  0
    2.8190    0.5320   54.4710 C   0  0  0  0  0  0  0  0  0  0  0  0
    1.9800    1.0230   52.2350 C   0  0  0  0  0  0  0  0  0  0  0  0
    0.9830    0.0800   52.4070 C   0  0  0  0  0  0  0  0  0  0  0  0
    1.3360    1.2480   49.8490 C   0  0  0  0  0  0  0  0  0  0  0  0
    3.5670    0.8680   55.6770 C   0  0  0  0  0  0  0  0  0  0  0  0
    2.4820    3.9890   51.5100 C   0  0  0  0  0  0  0  0  0  0  0  0
    3.4630    6.3970   49.6680 C   0  0  0  0  0  0  0  0  0  0  0  0
    2.7110    5.3310   48.8420 C   0  0  0  0  0  0  0  0  0  0  0  0
    2.9030    6.7850   51.0750 C   0  0  0  0  0  0  0  0  0  0  0  0
    1.4200    4.8200   49.5080 C   0  0  0  0  0  0  0  0  0  0  0  0
    1.5540    6.1630   51.4440 C   0  0  0  0  0  0  0  0  0  0  0  0
    0.5750   -0.0190   50.0410 C   0  0  0  0  0  0  0  0  0  0  0  0
   -0.5460   -0.1630   48.9800 C   0  0  0  0  0  0  0  0  0  0  0  0
    1.6350   -1.1090   49.9030 C   0  0  0  0  0  0  0  0  0  0  0  0
    6.3490   -1.0400   57.2870 C   0  0  0  0  0  0  0  0  0  0  0  0
    4.8250    0.3830   58.6550 C   0  0  0  0  0  0  0  0  0  0  0  0
    2.9210    2.7540   50.8020 C   0  0  0  0  0  0  0  0  0  0  0  0
    5.3900    0.1500   57.2460 C   0  0  0  0  0  0  0  0  0  0  0  0
    2.0170    1.6920   50.9650 N   0  0  0  0  0  0  0  0  0  0  0  0
    1.5670    4.8020   50.9530 N   0  0  0  0  0  0  0  0  0  0  0  0
    4.3590   -0.1020   56.2420 N   0  0  0  0  0  0  0  0  0  0  0  0
    1.5200    1.7230   48.7380 O   0  0  0  0  0  0  0  0  0  0  0  0
    3.4520    1.9430   56.2500 O   0  0  0  0  0  0  0  0  0  0  0  0
    2.9950    4.2330   52.5900 O   0  0  0  0  0  0  0  0  0  0  0  0
    0.0390   -0.0460   51.4060 O   0  0  0  0  0  0  0  0  0  0  0  0
  1  2  2  0
  1  4  1  0
  2  6  1  0
  3  4  2  0
  3  5  1  0
  4  8  1  0
  5  6  2  0
  5 22  1  0
  6 28  1  0
  7 15  1  0
  7 22  1  0
  7 25  2  0
  8 24  1  0
  8 26  2  0
  9 20  1  0
  9 23  1  0
  9 27  2  0
 10 11  1  0
 10 12  1  0
 11 13  1  0
 12 14  1  0
 13 23  1  0
 14 23  1  0
 15 16  1  0
 15 17  1  0
 15 28  1  0
 18 21  1  0
 19 21  1  0
 20 22  1  0
 21 24  1  0
M  END
>  <washed_aromatic_smiles>  (921) 
CC(C)NC(=O)c1ccc2c(c1)N(C(=O)C(O2)(C)C)CC(=O)N3CCCCC3

>  <name>  (921) 
neg63036

$$$$
neg257236
     RDKit          3D

 26 27  0  0  0  0  0  0  0  0999 V2000
    2.7130   -0.9950   52.2780 C   0  0  0  0  0  0  0  0  0  0  0  0
    1.5230    8.9850   56.3690 C   0  0  0  0  0  0  0  0  0  0  0  0
    3.4280   -0.3810   51.2550 C   0  0  0  0  0  0  0  0  0  0  0  0
    1.5590   -0.4040   52.7680 C   0  0  0  0  0  0  0  0  0  0  0  0
    0.3610    8.6150   55.6770 C   0  0  0  0  0  0  0  0  0  0  0  0
    2.7230    9.0740   55.6940 C   0  0  0  0  0  0  0  0  0  0  0  0
    2.9980    0.8330   50.7390 C   0  0  0  0  0  0  0  0  0  0  0  0
    1.1230    0.7990   52.2340 C   0  0  0  0  0  0  0  0  0  0  0  0
    0.4260    8.2700   54.3370 C   0  0  0  0  0  0  0  0  0  0  0  0
    2.7740    8.8090   54.3180 C   0  0  0  0  0  0  0  0  0  0  0  0
    1.8620    1.4460   51.2400 C   0  0  0  0  0  0  0  0  0  0  0  0
    1.6590    8.2000   53.7060 C   0  0  0  0  0  0  0  0  0  0  0  0
    3.8530    9.3610   53.5280 C   0  0  0  0  0  0  0  0  0  0  0  0
    1.0360    6.4180   52.0160 C   0  0  0  0  0  0  0  0  0  0  0  0
    6.3680   11.0450   52.5690 C   0  0  0  0  0  0  0  0  0  0  0  0
    5.5020   12.5080   54.4580 C   0  0  0  0  0  0  0  0  0  0  0  0
    1.4230    2.7970   50.7160 C   0  0  0  0  0  0  0  0  0  0  0  0
    1.5100    5.6970   50.7830 C   0  0  0  0  0  0  0  0  0  0  0  0
    5.1860   11.3930   53.4600 C   0  0  0  0  0  0  0  0  0  0  0  0
    1.7880    7.4990   52.4640 N   0  0  0  0  0  0  0  0  0  0  0  0
    4.7280   10.2110   54.1490 N   0  0  0  0  0  0  0  0  0  0  0  0
    3.9260    9.2340   52.3190 O   0  0  0  0  0  0  0  0  0  0  0  0
    0.0610    6.0240   52.6160 O   0  0  0  0  0  0  0  0  0  0  0  0
    3.4400    4.2440   49.9310 O   0  0  0  0  0  0  0  0  0  0  0  0
    2.9490    4.1830   52.3040 O   0  0  0  0  0  0  0  0  0  0  0  0
    2.4770    4.2180   50.9680 S   0  0  0  0  0  0  0  0  0  0  0  0
  1  3  2  0
  1  4  1  0
  2  5  2  0
  2  6  1  0
  3  7  1  0
  4  8  2  0
  5  9  1  0
  6 10  2  0
  7 11  2  0
  8 11  1  0
  9 12  2  0
 10 12  1  0
 10 13  1  0
 11 17  1  0
 12 20  1  0
 13 21  1  0
 13 22  2  0
 14 18  1  0
 14 20  1  0
 14 23  2  0
 15 19  1  0
 16 19  1  0
 17 26  1  0
 18 26  1  0
 19 21  1  0
 24 26  2  0
 25 26  2  0
M  END
>  <washed_aromatic_smiles>  (922) 
CC(C)NC(=O)c1ccccc1NC(=O)CS(=O)(=O)Cc2ccccc2

>  <name>  (922) 
neg257236

$$$$
neg109290
     RDKit          3D

 26 28  0  0  0  0  0  0  0  0999 V2000
    6.4060    7.1660   58.9020 C   0  0  0  0  0  0  0  0  0  0  0  0
    5.4410   12.7610   54.4680 C   0  0  0  0  0  0  0  0  0  0  0  0
   -0.2440    8.6260   56.5860 C   0  0  0  0  0  0  0  0  0  0  0  0
    5.0750    6.8580   58.7350 C   0  0  0  0  0  0  0  0  0  0  0  0
    7.0270    7.9090   57.9160 C   0  0  0  0  0  0  0  0  0  0  0  0
    4.7210   12.5570   55.6360 C   0  0  0  0  0  0  0  0  0  0  0  0
    5.8110   11.6750   53.6870 C   0  0  0  0  0  0  0  0  0  0  0  0
    0.7120    8.9220   57.5160 C   0  0  0  0  0  0  0  0  0  0  0  0
    0.1370    8.5270   55.2590 C   0  0  0  0  0  0  0  0  0  0  0  0
    4.4020    7.3770   57.6360 C   0  0  0  0  0  0  0  0  0  0  0  0
    6.2930    8.3880   56.8170 C   0  0  0  0  0  0  0  0  0  0  0  0
    4.3100   11.2760   55.9860 C   0  0  0  0  0  0  0  0  0  0  0  0
    5.4230   10.3900   54.0520 C   0  0  0  0  0  0  0  0  0  0  0  0
    2.0530    9.1120   57.1610 C   0  0  0  0  0  0  0  0  0  0  0  0
    1.4680    8.6560   54.9140 C   0  0  0  0  0  0  0  0  0  0  0  0
    4.9310    8.2320   56.7150 C   0  0  0  0  0  0  0  0  0  0  0  0
    4.6060   10.1790   55.1690 C   0  0  0  0  0  0  0  0  0  0  0  0
    2.4900    8.8790   55.8600 C   0  0  0  0  0  0  0  0  0  0  0  0
    3.6630    7.6440   53.2830 C   0  0  0  0  0  0  0  0  0  0  0  0
    1.0540    6.4040   52.0390 C   0  0  0  0  0  0  0  0  0  0  0  0
    3.0410    5.9770   50.5180 C   0  0  0  0  0  0  0  0  0  0  0  0
    2.4720    5.8250   51.9330 C   0  0  0  0  0  0  0  0  0  0  0  0
    4.0460    8.7930   55.5440 C   0  0  0  0  0  0  0  0  0  0  0  0
    3.3790    6.3110   52.9850 N   0  0  0  0  0  0  0  0  0  0  0  0
    4.2220    7.7460   54.5400 N   0  0  0  0  0  0  0  0  0  0  0  0
    3.3640    8.9540   52.2810 S   0  0  0  0  0  0  0  0  0  0  0  0
  1  4  2  0
  1  5  1  0
  2  6  2  0
  2  7  1  0
  3  8  2  0
  3  9  1  0
  4 10  1  0
  5 11  2  0
  6 12  1  0
  7 13  2  0
  8 14  1  0
  9 15  2  0
 10 16  2  0
 11 16  1  0
 12 17  2  0
 13 17  1  0
 14 18  2  0
 15 18  1  0
 16 23  1  0
 17 23  1  0
 18 23  1  0
 19 24  1  0
 19 25  1  0
 19 26  2  0
 20 22  1  0
 21 22  1  0
 22 24  1  0
 23 25  1  0
M  END
>  <washed_aromatic_smiles>  (923) 
CC(C)NC(=S)NC(c1ccccc1)(c2ccccc2)c3ccccc3

>  <name>  (923) 
neg109290

$$$$
neg283492
     RDKit          3D

 28 29  0  0  0  0  0  0  0  0999 V2000
    3.8800   10.2650   57.3840 C   0  0  0  0  0  0  0  0  0  0  0  0
    5.3300   10.7030   55.5030 C   0  0  0  0  0  0  0  0  0  0  0  0
    3.2410    9.2680   56.6620 C   0  0  0  0  0  0  0  0  0  0  0  0
    4.7310    9.6910   54.7880 C   0  0  0  0  0  0  0  0  0  0  0  0
    1.3300    5.0060   51.2440 C   0  0  0  0  0  0  0  0  0  0  0  0
    3.2150    5.3160   49.7800 C   0  0  0  0  0  0  0  0  0  0  0  0
    1.3220    3.6750   50.9050 C   0  0  0  0  0  0  0  0  0  0  0  0
    3.1260    3.9740   49.4010 C   0  0  0  0  0  0  0  0  0  0  0  0
    4.8820   11.0420   56.7890 C   0  0  0  0  0  0  0  0  0  0  0  0
    3.6400    9.0270   55.3450 C   0  0  0  0  0  0  0  0  0  0  0  0
    2.3630    5.7980   50.7730 C   0  0  0  0  0  0  0  0  0  0  0  0
    2.2500    3.1140   50.0730 C   0  0  0  0  0  0  0  0  0  0  0  0
    5.4080   12.2100   57.4740 C   0  0  0  0  0  0  0  0  0  0  0  0
    2.4920    8.5310   53.2650 C   0  0  0  0  0  0  0  0  0  0  0  0
    3.0140    1.5330   53.1190 C   0  0  0  0  0  0  0  0  0  0  0  0
    2.5260   -0.8550   52.7920 C   0  0  0  0  0  0  0  0  0  0  0  0
    4.9560   13.6090   55.4750 C   0  0  0  0  0  0  0  0  0  0  0  0
    1.7830    7.4880   52.4660 C   0  0  0  0  0  0  0  0  0  0  0  0
    1.9250    0.5480   52.6860 C   0  0  0  0  0  0  0  0  0  0  0  0
    2.8990    8.1660   54.5310 N   0  0  0  0  0  0  0  0  0  0  0  0
    1.3540    0.7850   51.3510 N   0  0  0  0  0  0  0  0  0  0  0  0
    5.7210   12.2260   58.6540 O   0  0  0  0  0  0  0  0  0  0  0  0
    2.6820    9.6530   52.8430 O   0  0  0  0  0  0  0  0  0  0  0  0
    1.5510    0.9400   48.8430 O   0  0  0  0  0  0  0  0  0  0  0  0
    3.5700    0.8780   50.2110 O   0  0  0  0  0  0  0  0  0  0  0  0
    2.5730    7.0290   51.3280 O   0  0  0  0  0  0  0  0  0  0  0  0
    5.5310   13.3760   56.7960 O   0  0  0  0  0  0  0  0  0  0  0  0
    2.2330    1.3180   50.0350 S   0  0  0  0  0  0  0  0  0  0  0  0
  1  3  2  0
  1  9  1  0
  2  4  1  0
  2  9  2  0
  3 10  1  0
  4 10  2  0
  5  7  2  0
  5 11  1  0
  6  8  1  0
  6 11  2  0
  7 12  1  0
  8 12  2  0
  9 13  1  0
 10 20  1  0
 11 26  1  0
 12 28  1  0
 13 22  2  0
 13 27  1  0
 14 18  1  0
 14 20  1  0
 14 23  2  0
 15 19  1  0
 16 19  1  0
 17 27  1  0
 18 26  1  0
 19 21  1  0
 21 28  1  0
 24 28  2  0
 25 28  2  0
M  END
>  <washed_aromatic_smiles>  (924) 
CC(C)NS(=O)(=O)c1ccc(cc1)OCC(=O)Nc2ccc(cc2)C(=O)OC

>  <name>  (924) 
neg283492

$$$$
neg298512
     RDKit          3D

 26 29  0  0  0  0  0  0  0  0999 V2000
    5.6120   10.7990   54.5280 C   0  0  0  0  0  0  0  0  0  0  0  0
    0.7820    8.9280   57.3340 C   0  0  0  0  0  0  0  0  0  0  0  0
    5.5380   10.4850   53.1750 C   0  0  0  0  0  0  0  0  0  0  0  0
   -0.1740    8.5660   56.4040 C   0  0  0  0  0  0  0  0  0  0  0  0
    4.6660   10.2990   55.4150 C   0  0  0  0  0  0  0  0  0  0  0  0
    2.0870    9.2180   56.9380 C   0  0  0  0  0  0  0  0  0  0  0  0
    4.4590    9.7530   52.6890 C   0  0  0  0  0  0  0  0  0  0  0  0
    0.1610    8.4820   55.0460 C   0  0  0  0  0  0  0  0  0  0  0  0
    3.5890    9.5730   54.9090 C   0  0  0  0  0  0  0  0  0  0  0  0
    2.4050    9.1350   55.5870 C   0  0  0  0  0  0  0  0  0  0  0  0
    3.4430    9.3540   53.5460 C   0  0  0  0  0  0  0  0  0  0  0  0
    1.4630    8.7260   54.6520 C   0  0  0  0  0  0  0  0  0  0  0  0
    1.7430    3.2290   49.4390 C   0  0  0  0  0  0  0  0  0  0  0  0
    3.0450    7.1120   51.7350 C   0  0  0  0  0  0  0  0  0  0  0  0
    0.7700    6.6310   52.5560 C   0  0  0  0  0  0  0  0  0  0  0  0
    2.9920    5.8700   50.8380 C   0  0  0  0  0  0  0  0  0  0  0  0
    0.7930    5.4330   51.5750 C   0  0  0  0  0  0  0  0  0  0  0  0
    2.0200    8.8400   53.2430 C   0  0  0  0  0  0  0  0  0  0  0  0
    0.2860    1.6030   47.0720 C   0  0  0  0  0  0  0  0  0  0  0  0
    0.6910   -0.2680   48.6930 C   0  0  0  0  0  0  0  0  0  0  0  0
    2.3060    3.5080   50.8340 C   0  0  0  0  0  0  0  0  0  0  0  0
    0.6060    1.2520   48.5300 C   0  0  0  0  0  0  0  0  0  0  0  0
    1.7910    7.6900   52.2490 N   0  0  0  0  0  0  0  0  0  0  0  0
    2.1480    4.8670   51.4470 N   0  0  0  0  0  0  0  0  0  0  0  0
    1.1730    4.0850   48.7660 O   0  0  0  0  0  0  0  0  0  0  0  0
    1.7710    1.9260   49.0710 O   0  0  0  0  0  0  0  0  0  0  0  0
  1  3  2  0
  1  5  1  0
  2  4  2  0
  2  6  1  0
  3  7  1  0
  4  8  1  0
  5  9  2  0
  6 10  2  0
  7 11  2  0
  8 12  2  0
  9 10  1  0
  9 11  1  0
 10 12  1  0
 11 18  1  0
 12 18  1  0
 13 21  1  0
 13 25  2  0
 13 26  1  0
 14 16  1  0
 14 23  1  0
 15 17  1  0
 15 23  1  0
 16 24  1  0
 17 24  1  0
 18 23  1  0
 19 22  1  0
 20 22  1  0
 21 24  1  0
 22 26  1  0
M  CHG  1  23   1
M  END
>  <washed_aromatic_smiles>  (925) 
CC(C)OC(=O)CN1CCN(CC1)C2c3ccccc3-c4c2cccc4

>  <name>  (925) 
neg298512

$$$$
neg127045
     RDKit          3D

 25 26  0  0  1  0  0  0  0  0999 V2000
    0.6120    2.5360   47.6420 C   0  0  0  0  0  0  0  0  0  0  0  0
    0.8250    1.8440   48.8370 C   0  0  0  0  0  0  0  0  0  0  0  0
    1.0870    3.8530   47.5520 C   0  0  0  0  0  0  0  0  0  0  0  0
    1.4660    2.5040   49.8980 C   0  0  0  0  0  0  0  0  0  0  0  0
    1.9040    4.4220   48.4960 C   0  0  0  0  0  0  0  0  0  0  0  0
    2.0710    3.7760   49.7040 C   0  0  0  0  0  0  0  0  0  0  0  0
    3.0720    2.7620   52.4990 C   0  0  0  0  0  0  0  0  0  0  0  0
    3.1280    0.9620   53.6020 C   0  0  0  0  0  0  0  0  0  0  0  0
    3.3860    6.5200   53.2760 C   0  0  0  0  0  0  0  0  0  0  0  0
    3.7500    1.6320   57.1070 C   0  0  0  0  0  0  0  0  0  0  0  0
    5.0630   -0.5350   56.8800 C   0  0  0  0  0  0  0  0  0  0  0  0
    1.8490    8.6250   54.9540 C   0  0  0  0  0  0  0  0  0  0  0  0
    2.7170    9.3100   52.6950 C   0  0  0  0  0  0  0  0  0  0  0  0
    0.3440    8.5620   52.9230 C   0  0  0  0  0  0  0  0  0  0  0  0
    2.8350    4.6300   50.6830 C   0  0  0  0  0  0  0  0  0  0  0  0
    2.8050    4.2900   52.1610 C   0  0  2  0  0  0  0  0  0  0  0  0
    4.2700    0.5700   56.1660 C   0  0  0  0  0  0  0  0  0  0  0  0
    1.7680    8.3570   53.4370 C   0  0  0  0  0  0  0  0  0  0  0  0
    3.5950    1.8590   51.7490 N   0  0  0  0  0  0  0  0  0  0  0  0
    3.5960    0.6750   52.4370 N   0  0  0  0  0  0  0  0  0  0  0  0
    3.6770    5.2430   52.8850 N   0  0  0  0  0  0  0  0  0  0  0  0
    4.2500    7.2390   53.7560 O   0  0  0  0  0  0  0  0  0  0  0  0
    2.7710    2.2190   53.6760 O   0  0  0  0  0  0  0  0  0  0  0  0
    2.1200    6.9620   53.1440 O   0  0  0  0  0  0  0  0  0  0  0  0
    2.9990   -0.0800   54.9980 S   0  0  0  0  0  0  0  0  0  0  0  0
  1  2  2  0
  1  3  1  0
  2  4  1  0
  3  5  2  0
  4  6  2  0
  5  6  1  0
  6 15  1  0
  7 16  1  0
  7 19  2  0
  7 23  1  0
  8 20  2  0
  8 23  1  0
  8 25  1  0
  9 21  1  0
  9 22  2  0
  9 24  1  0
 10 17  1  0
 11 17  1  0
 12 18  1  0
 13 18  1  0
 14 18  1  0
 16 15  1  6
 16 21  1  0
 17 25  1  0
 18 24  1  0
 19 20  1  0
M  END
>  <washed_aromatic_smiles>  (926) 
CC(C)Sc1nnc(o1)[C@H](Cc2ccccc2)NC(=O)OC(C)(C)C

>  <name>  (926) 
neg127045

$$$$
neg172942
     RDKit          3D

 25 27  0  0  0  0  0  0  0  0999 V2000
    0.8370    0.2940   49.3280 C   0  0  0  0  0  0  0  0  0  0  0  0
    0.4710    1.0330   48.2090 C   0  0  0  0  0  0  0  0  0  0  0  0
    1.6880    0.8500   50.2770 C   0  0  0  0  0  0  0  0  0  0  0  0
    0.9480    2.3300   48.0450 C   0  0  0  0  0  0  0  0  0  0  0  0
    2.1750    2.1430   50.1060 C   0  0  0  0  0  0  0  0  0  0  0  0
    3.9350   10.3550   56.4080 C   0  0  0  0  0  0  0  0  0  0  0  0
    4.8790   10.4270   54.1870 C   0  0  0  0  0  0  0  0  0  0  0  0
    3.2850    9.1660   56.1000 C   0  0  0  0  0  0  0  0  0  0  0  0
    4.2190    9.2540   53.8650 C   0  0  0  0  0  0  0  0  0  0  0  0
    1.8040    2.8960   48.9900 C   0  0  0  0  0  0  0  0  0  0  0  0
    4.7440   10.9920   55.4570 C   0  0  0  0  0  0  0  0  0  0  0  0
    3.4400    8.6170   54.8270 C   0  0  0  0  0  0  0  0  0  0  0  0
    1.7350    7.3720   53.6420 C   0  0  0  0  0  0  0  0  0  0  0  0
    3.1160    6.3610   51.9520 C   0  0  0  0  0  0  0  0  0  0  0  0
    0.6750    6.2580   51.7460 C   0  0  0  0  0  0  0  0  0  0  0  0
    3.2650    5.3080   50.8570 C   0  0  0  0  0  0  0  0  0  0  0  0
    0.8700    5.2650   50.5830 C   0  0  0  0  0  0  0  0  0  0  0  0
    5.6290   12.6560   57.1880 C   0  0  0  0  0  0  0  0  0  0  0  0
    4.6530   13.4270   55.0030 C   0  0  0  0  0  0  0  0  0  0  0  0
    2.3190    4.3080   48.7580 C   0  0  0  0  0  0  0  0  0  0  0  0
    5.4350   12.3200   55.7070 C   0  0  0  0  0  0  0  0  0  0  0  0
    1.8280    6.3790   52.6480 N   0  0  0  0  0  0  0  0  0  0  0  0
    2.1710    5.3140   49.8720 N   0  0  0  0  0  0  0  0  0  0  0  0
    2.8410    7.3960   54.4980 N   0  0  0  0  0  0  0  0  0  0  0  0
    0.4430    8.4330   53.8170 S   0  0  0  0  0  0  0  0  0  0  0  0
  1  2  2  0
  1  3  1  0
  2  4  1  0
  3  5  2  0
  4 10  2  0
  5 10  1  0
  6  8  2  0
  6 11  1  0
  7  9  1  0
  7 11  2  0
  8 12  1  0
  9 12  2  0
 10 20  1  0
 11 21  1  0
 12 24  1  0
 13 22  1  0
 13 24  1  0
 13 25  2  0
 14 16  1  0
 14 22  1  0
 15 17  1  0
 15 22  1  0
 16 23  1  0
 17 23  1  0
 18 21  1  0
 19 21  1  0
 20 23  1  0
M  CHG  1  23   1
M  END
>  <washed_aromatic_smiles>  (927) 
CC(C)c1ccc(cc1)NC(=S)N2CCN(CC2)Cc3ccccc3

>  <name>  (927) 
neg172942

$$$$
neg56445
     RDKit          3D

 26 28  0  0  0  0  0  0  0  0999 V2000
    3.1800    9.7060   56.5320 C   0  0  0  0  0  0  0  0  0  0  0  0
    4.9190   10.4210   55.0290 C   0  0  0  0  0  0  0  0  0  0  0  0
    2.4820    9.1590   55.4620 C   0  0  0  0  0  0  0  0  0  0  0  0
    4.2300    9.8750   53.9700 C   0  0  0  0  0  0  0  0  0  0  0  0
    4.4010   10.3480   56.3140 C   0  0  0  0  0  0  0  0  0  0  0  0
    3.0010    9.2520   54.1760 C   0  0  0  0  0  0  0  0  0  0  0  0
    2.7470    2.8530   51.9730 C   0  0  0  0  0  0  0  0  0  0  0  0
    0.9420   -0.4380   49.6350 C   0  0  0  0  0  0  0  0  0  0  0  0
   -0.0260    0.4340   50.4210 C   0  0  0  0  0  0  0  0  0  0  0  0
    2.1230   -0.7250   50.5580 C   0  0  0  0  0  0  0  0  0  0  0  0
    0.6570    1.7510   50.7900 C   0  0  0  0  0  0  0  0  0  0  0  0
    2.8600    0.5820   50.8390 C   0  0  0  0  0  0  0  0  0  0  0  0
    1.4620    5.0500   51.3060 C   0  0  0  0  0  0  0  0  0  0  0  0
    3.5040    5.2140   52.4360 C   0  0  0  0  0  0  0  0  0  0  0  0
    0.9310    6.2290   52.2010 C   0  0  0  0  0  0  0  0  0  0  0  0
    3.1420    6.3680   53.3350 C   0  0  0  0  0  0  0  0  0  0  0  0
    1.9410    1.6010   51.5490 C   0  0  0  0  0  0  0  0  0  0  0  0
    4.8110   10.6700   58.8200 C   0  0  0  0  0  0  0  0  0  0  0  0
    5.4900   12.4620   57.1650 C   0  0  0  0  0  0  0  0  0  0  0  0
    5.2450   10.9620   57.3980 C   0  0  0  0  0  0  0  0  0  0  0  0
    2.5100    4.2290   51.9260 N   0  0  0  0  0  0  0  0  0  0  0  0
    1.9140    7.0310   53.0290 N   0  0  0  0  0  0  0  0  0  0  0  0
    3.6590    2.3980   52.6140 O   0  0  0  0  0  0  0  0  0  0  0  0
    0.9220    9.3000   52.5930 O   0  0  0  0  0  0  0  0  0  0  0  0
    3.1240    8.7060   51.7000 O   0  0  0  0  0  0  0  0  0  0  0  0
    2.1660    8.6210   52.7420 S   0  0  0  0  0  0  0  0  0  0  0  0
  1  3  2  0
  1  5  1  0
  2  4  1  0
  2  5  2  0
  3  6  1  0
  4  6  2  0
  5 20  1  0
  6 26  1  0
  7 17  1  0
  7 21  1  0
  7 23  2  0
  8  9  1  0
  8 10  1  0
  9 11  1  0
 10 12  1  0
 11 17  1  0
 12 17  1  0
 13 15  1  0
 13 21  1  0
 14 16  1  0
 14 21  1  0
 15 22  1  0
 16 22  1  0
 18 20  1  0
 19 20  1  0
 22 26  1  0
 24 26  2  0
 25 26  2  0
M  END
>  <washed_aromatic_smiles>  (928) 
CC(C)c1ccc(cc1)S(=O)(=O)N2CCN(CC2)C(=O)C3CCCCC3

>  <name>  (928) 
neg56445

$$$$
neg303884
     RDKit          3D

 27 30  0  0  0  0  0  0  0  0999 V2000
    2.7100    1.0080   51.1610 C   0  0  0  0  0  0  0  0  0  0  0  0
    1.8760    1.2100   50.0560 C   0  0  0  0  0  0  0  0  0  0  0  0
    0.5810    8.8580   57.5410 C   0  0  0  0  0  0  0  0  0  0  0  0
   -0.2060    8.5180   56.4720 C   0  0  0  0  0  0  0  0  0  0  0  0
    3.1160    2.0880   51.9420 C   0  0  0  0  0  0  0  0  0  0  0  0
    1.4390    2.4900   49.7340 C   0  0  0  0  0  0  0  0  0  0  0  0
    1.9100    9.1840   57.3290 C   0  0  0  0  0  0  0  0  0  0  0  0
    0.3260    8.4870   55.1750 C   0  0  0  0  0  0  0  0  0  0  0  0
    2.6740    3.3730   51.6100 C   0  0  0  0  0  0  0  0  0  0  0  0
    1.8150    3.5570   50.5510 C   0  0  0  0  0  0  0  0  0  0  0  0
    2.4020    9.2950   56.0650 C   0  0  0  0  0  0  0  0  0  0  0  0
    1.6810    8.8250   54.9590 C   0  0  0  0  0  0  0  0  0  0  0  0
    2.9240    4.6830   52.1820 C   0  0  0  0  0  0  0  0  0  0  0  0
    1.4430    4.9480   50.5360 C   0  0  0  0  0  0  0  0  0  0  0  0
    4.2690   10.1360   54.8780 C   0  0  0  0  0  0  0  0  0  0  0  0
    1.7940    7.9670   52.5990 C   0  0  0  0  0  0  0  0  0  0  0  0
    3.9280    9.1170   53.7970 C   0  0  0  0  0  0  0  0  0  0  0  0
    4.4460    9.7580   52.5280 C   0  0  0  0  0  0  0  0  0  0  0  0
    4.7890    7.9480   54.2240 C   0  0  0  0  0  0  0  0  0  0  0  0
    2.5510    7.0530   51.6370 C   0  0  0  0  0  0  0  0  0  0  0  0
    3.5860   10.0190   56.0130 N   0  0  0  0  0  0  0  0  0  0  0  0
    2.4070    8.6760   53.7060 N   0  0  0  0  0  0  0  0  0  0  0  0
    2.1780    5.6210   51.5140 N   0  0  0  0  0  0  0  0  0  0  0  0
    3.7040    5.0260   53.0480 O   0  0  0  0  0  0  0  0  0  0  0  0
    0.5850    5.4520   49.8530 O   0  0  0  0  0  0  0  0  0  0  0  0
    5.1830   10.9470   54.8530 O   0  0  0  0  0  0  0  0  0  0  0  0
    0.6030    8.0920   52.3980 O   0  0  0  0  0  0  0  0  0  0  0  0
  1  2  2  0
  1  5  1  0
  2  6  1  0
  3  4  2  0
  3  7  1  0
  4  8  1  0
  5  9  2  0
  6 10  2  0
  7 11  2  0
  8 12  2  0
  9 10  1  0
  9 13  1  0
 10 14  1  0
 11 12  1  0
 11 21  1  0
 12 22  1  0
 13 23  1  0
 13 24  2  0
 14 23  1  0
 14 25  2  0
 15 17  1  0
 15 21  1  0
 15 26  2  0
 16 20  1  0
 16 22  1  0
 16 27  2  0
 17 18  1  0
 17 19  1  0
 17 22  1  0
 20 23  1  0
M  END
>  <washed_aromatic_smiles>  (929) 
CC1(C(=O)Nc2ccccc2N1C(=O)CN3C(=O)c4ccccc4C3=O)C

>  <name>  (929) 
neg303884

$$$$
neg90505
     RDKit          3D

 29 31  0  0  0  0  0  0  0  0999 V2000
    3.3420    6.3710   50.3520 C   0  0  0  0  0  0  0  0  0  0  0  0
    3.2370    5.0140   50.1500 C   0  0  0  0  0  0  0  0  0  0  0  0
    2.5480    7.0270   51.2770 C   0  0  0  0  0  0  0  0  0  0  0  0
    1.2380    5.0320   51.4520 C   0  0  0  0  0  0  0  0  0  0  0  0
    2.1890    4.3140   50.7180 C   0  0  0  0  0  0  0  0  0  0  0  0
    1.4530    6.3570   51.7960 C   0  0  0  0  0  0  0  0  0  0  0  0
    1.0560    1.1380   52.2980 C   0  0  0  0  0  0  0  0  0  0  0  0
    3.5710    1.4480   52.3230 C   0  0  0  0  0  0  0  0  0  0  0  0
    1.6630    0.6160   49.5680 C   0  0  0  0  0  0  0  0  0  0  0  0
    2.3060    2.6860   48.1860 C   0  0  0  0  0  0  0  0  0  0  0  0
    1.1320    0.2660   53.5030 C   0  0  0  0  0  0  0  0  0  0  0  0
    3.3670    1.0440   53.7470 C   0  0  0  0  0  0  0  0  0  0  0  0
    0.3440    0.5920   48.9200 C   0  0  0  0  0  0  0  0  0  0  0  0
    1.1930    2.3120   47.2820 C   0  0  0  0  0  0  0  0  0  0  0  0
    2.2770    2.0560   51.9030 C   0  0  0  0  0  0  0  0  0  0  0  0
    2.4450    1.9230   49.4680 C   0  0  0  0  0  0  0  0  0  0  0  0
    2.5240   -0.2050   53.8230 C   0  0  0  0  0  0  0  0  0  0  0  0
    0.6040    0.8990   47.4700 C   0  0  0  0  0  0  0  0  0  0  0  0
    2.8410   -1.3700   52.8770 C   0  0  0  0  0  0  0  0  0  0  0  0
    2.6530   -0.6190   55.2530 C   0  0  0  0  0  0  0  0  0  0  0  0
   -0.6750    1.0300   46.7990 C   0  0  0  0  0  0  0  0  0  0  0  0
    1.2570   -0.3450   46.7900 C   0  0  0  0  0  0  0  0  0  0  0  0
    0.6570    8.3170   53.1320 C   0  0  0  0  0  0  0  0  0  0  0  0
    2.0300    2.8030   50.6110 C   0  0  0  0  0  0  0  0  0  0  0  0
   -0.0360    1.2420   51.8110 O   0  0  0  0  0  0  0  0  0  0  0  0
    4.4890    1.1040   51.6410 O   0  0  0  0  0  0  0  0  0  0  0  0
    2.0410   -0.3580   50.1570 O   0  0  0  0  0  0  0  0  0  0  0  0
    3.1560    3.4190   47.7670 O   0  0  0  0  0  0  0  0  0  0  0  0
    0.5440    6.9600   52.6440 O   0  0  0  0  0  0  0  0  0  0  0  0
  1  2  2  0
  1  3  1  0
  2  5  1  0
  3  6  2  0
  4  5  2  0
  4  6  1  0
  5 24  1  0
  6 29  1  0
  7 11  1  0
  7 15  1  0
  7 25  2  0
  8 12  1  0
  8 15  1  0
  8 26  2  0
  9 13  1  0
  9 16  1  0
  9 27  2  0
 10 14  1  0
 10 16  1  0
 10 28  2  0
 11 17  1  0
 12 17  1  0
 13 18  1  0
 14 18  1  0
 15 24  1  0
 16 24  1  0
 17 19  1  0
 17 20  1  0
 18 21  1  0
 18 22  1  0
 23 29  1  0
M  END
>  <washed_aromatic_smiles>  (930) 
CC1(CC(=O)C(C(=O)C1)C(c2cccc(c2)OC)C3C(=O)CC(CC3=O)(C)C)C

>  <name>  (930) 
neg90505

$$$$
neg180444
     RDKit          3D

 25 26  0  0  0  0  0  0  0  0999 V2000
    1.0630    2.4140   49.1790 C   0  0  0  0  0  0  0  0  0  0  0  0
    1.0160    1.1010   49.6530 C   0  0  0  0  0  0  0  0  0  0  0  0
    4.5420   10.7010   55.6700 C   0  0  0  0  0  0  0  0  0  0  0  0
    5.1920   10.9690   53.3450 C   0  0  0  0  0  0  0  0  0  0  0  0
    3.7500    9.6140   55.3130 C   0  0  0  0  0  0  0  0  0  0  0  0
    4.3980    9.8770   53.0050 C   0  0  0  0  0  0  0  0  0  0  0  0
    2.5550    3.0340   50.9640 C   0  0  0  0  0  0  0  0  0  0  0  0
    1.7660    3.4030   49.8830 C   0  0  0  0  0  0  0  0  0  0  0  0
    1.7640    0.7640   50.7760 C   0  0  0  0  0  0  0  0  0  0  0  0
    2.6480    1.7010   51.3100 C   0  0  0  0  0  0  0  0  0  0  0  0
    5.2430   11.3670   54.6740 C   0  0  0  0  0  0  0  0  0  0  0  0
    3.6590    9.2000   53.9780 C   0  0  0  0  0  0  0  0  0  0  0  0
    2.6230    5.8160   50.1890 C   0  0  0  0  0  0  0  0  0  0  0  0
    1.7790   -0.6190   52.8230 C   0  0  0  0  0  0  0  0  0  0  0  0
    4.5710    0.4550   51.1950 C   0  0  0  0  0  0  0  0  0  0  0  0
    1.6550    4.8650   49.4980 C   0  0  0  0  0  0  0  0  0  0  0  0
    2.2380    6.3510   51.3750 N   0  0  0  0  0  0  0  0  0  0  0  0
    2.9380    7.3760   52.0930 N   0  0  0  0  0  0  0  0  0  0  0  0
    3.7290    6.0940   49.6850 O   0  0  0  0  0  0  0  0  0  0  0  0
    1.2600    8.1610   53.7560 O   0  0  0  0  0  0  0  0  0  0  0  0
    3.1160    6.7360   54.4760 O   0  0  0  0  0  0  0  0  0  0  0  0
    1.6160   -0.4790   51.3660 O   0  0  0  0  0  0  0  0  0  0  0  0
    3.7370    1.3020   52.0220 O   0  0  0  0  0  0  0  0  0  0  0  0
    5.9970   12.4410   55.0130 F   0  0  0  0  0  0  0  0  0  0  0  0
    2.6380    7.7700   53.6100 S   0  0  2  0  0  0  0  0  0  0  0  0
  1  2  2  0
  1  8  1  0
  2  9  1  0
  3  5  2  0
  3 11  1  0
  4  6  1  0
  4 11  2  0
  5 12  1  0
  6 12  2  0
  7  8  2  0
  7 10  1  0
  8 16  1  0
  9 10  2  0
  9 22  1  0
 10 23  1  0
 11 24  1  0
 12 25  1  0
 13 16  1  0
 13 17  1  0
 13 19  2  0
 14 22  1  0
 15 23  1  0
 17 18  1  0
 18 25  2  0
 20 25  2  0
 25 21  1  1
M  CHG  1  21  -1
M  END
>  <washed_aromatic_smiles>  (931) 
COc1ccc(cc1OC)CC(=O)NNS(=O)(=O)c2ccc(cc2)F

>  <name>  (931) 
neg180444

$$$$
neg114226
     RDKit          3D

 26 28  0  0  0  0  0  0  0  0999 V2000
    0.7430    2.5860   47.9650 C   0  0  0  0  0  0  0  0  0  0  0  0
    1.2240    3.8870   47.9440 C   0  0  0  0  0  0  0  0  0  0  0  0
    4.8800    8.0010   53.9080 C   0  0  0  0  0  0  0  0  0  0  0  0
    0.8790    1.8300   49.1170 C   0  0  0  0  0  0  0  0  0  0  0  0
    1.8490    4.4460   49.0430 C   0  0  0  0  0  0  0  0  0  0  0  0
    4.8780    9.3810   53.8920 C   0  0  0  0  0  0  0  0  0  0  0  0
    2.6200    7.9330   53.0940 C   0  0  0  0  0  0  0  0  0  0  0  0
    3.7850    7.2680   53.4140 C   0  0  0  0  0  0  0  0  0  0  0  0
    1.5210    2.3780   50.2360 C   0  0  0  0  0  0  0  0  0  0  0  0
    1.9880    3.7120   50.2190 C   0  0  0  0  0  0  0  0  0  0  0  0
    3.7950   10.0410   53.3360 C   0  0  0  0  0  0  0  0  0  0  0  0
    2.6300    9.3140   53.0080 C   0  0  0  0  0  0  0  0  0  0  0  0
    3.1750    5.5150   51.6130 C   0  0  0  0  0  0  0  0  0  0  0  0
    2.5590   -0.9370   52.7350 C   0  0  0  0  0  0  0  0  0  0  0  0
    3.5310   -0.1230   51.8800 C   0  0  0  0  0  0  0  0  0  0  0  0
    1.3690   -0.0580   53.1340 C   0  0  0  0  0  0  0  0  0  0  0  0
    2.8290    0.6150   50.7800 C   0  0  0  0  0  0  0  0  0  0  0  0
    0.7920    0.7330   51.9410 C   0  0  0  0  0  0  0  0  0  0  0  0
    5.1150   12.2060   53.2910 C   0  0  0  0  0  0  0  0  0  0  0  0
    0.1670    9.3140   52.5920 C   0  0  0  0  0  0  0  0  0  0  0  0
    3.8930    5.8260   52.9310 C   0  0  0  0  0  0  0  0  0  0  0  0
    1.8490    1.5400   51.3030 N   0  0  0  0  0  0  0  0  0  0  0  0
    2.6120    4.2560   51.4150 N   0  0  0  0  0  0  0  0  0  0  0  0
    3.1510    6.3440   50.7280 O   0  0  0  0  0  0  0  0  0  0  0  0
    3.9400   11.3950   53.0580 O   0  0  0  0  0  0  0  0  0  0  0  0
    1.4950    9.9020   52.5160 O   0  0  0  0  0  0  0  0  0  0  0  0
  1  2  2  0
  1  4  1  0
  2  5  1  0
  3  6  2  0
  3  8  1  0
  4  9  2  0
  5 10  2  0
  6 11  1  0
  7  8  2  0
  7 12  1  0
  8 21  1  0
  9 10  1  0
  9 22  1  0
 10 23  1  0
 11 12  2  0
 11 25  1  0
 12 26  1  0
 13 21  1  0
 13 23  1  0
 13 24  2  0
 14 15  1  0
 14 16  1  0
 15 17  1  0
 16 18  1  0
 17 22  1  0
 18 22  1  0
 19 25  1  0
 20 26  1  0
M  END
>  <washed_aromatic_smiles>  (932) 
COc1ccc(cc1OC)CC(=O)Nc2ccccc2N3CCCCC3

>  <name>  (932) 
neg114226

$$$$
neg268604
     RDKit          3D

 27 28  0  0  0  0  0  0  0  0999 V2000
    1.6950    8.8610   55.8350 C   0  0  0  0  0  0  0  0  0  0  0  0
    0.8110    8.6190   54.7890 C   0  0  0  0  0  0  0  0  0  0  0  0
    5.3220   11.1210   58.5950 C   0  0  0  0  0  0  0  0  0  0  0  0
    3.5090    7.9510   54.5460 C   0  0  0  0  0  0  0  0  0  0  0  0
    5.8760   12.9080   56.5350 C   0  0  0  0  0  0  0  0  0  0  0  0
    5.2790   10.6890   57.2590 C   0  0  0  0  0  0  0  0  0  0  0  0
    3.0300    8.4890   55.7460 C   0  0  0  0  0  0  0  0  0  0  0  0
    5.4550   11.6180   56.2210 C   0  0  0  0  0  0  0  0  0  0  0  0
    1.2770    8.0850   53.6060 C   0  0  0  0  0  0  0  0  0  0  0  0
    5.7250   12.4190   58.8990 C   0  0  0  0  0  0  0  0  0  0  0  0
    2.6230    7.7440   53.4820 C   0  0  0  0  0  0  0  0  0  0  0  0
    6.1070   13.2740   57.8670 C   0  0  0  0  0  0  0  0  0  0  0  0
    5.1600    9.2730   56.9640 C   0  0  0  0  0  0  0  0  0  0  0  0
    5.3270   12.2290   53.7030 C   0  0  0  0  0  0  0  0  0  0  0  0
    0.1280    6.6250   52.0420 C   0  0  0  0  0  0  0  0  0  0  0  0
    6.1540   14.0380   60.9950 C   0  0  0  0  0  0  0  0  0  0  0  0
    3.3440    5.7890   52.2480 C   0  0  0  0  0  0  0  0  0  0  0  0
    8.1190   14.3380   58.8230 C   0  0  0  0  0  0  0  0  0  0  0  0
    3.8440    8.5660   57.0240 C   0  0  0  0  0  0  0  0  0  0  0  0
    5.2370   11.1680   54.7730 C   0  0  0  0  0  0  0  0  0  0  0  0
    6.1390    8.6060   56.7230 O   0  0  0  0  0  0  0  0  0  0  0  0
    6.3080   12.1960   52.9350 O   0  0  0  0  0  0  0  0  0  0  0  0
    4.4300   13.0940   53.6610 O   0  0  0  0  0  0  0  0  0  0  0  0
    0.3660    7.9200   52.5970 O   0  0  0  0  0  0  0  0  0  0  0  0
    5.7400   12.8260   60.2310 O   0  0  0  0  0  0  0  0  0  0  0  0
    3.0490    7.1940   52.3080 O   0  0  0  0  0  0  0  0  0  0  0  0
    6.7980   14.4230   58.1600 O   0  0  0  0  0  0  0  0  0  0  0  0
  1  2  2  0
  1  7  1  0
  2  9  1  0
  3  6  2  0
  3 10  1  0
  4  7  2  0
  4 11  1  0
  5  8  2  0
  5 12  1  0
  6  8  1  0
  6 13  1  0
  7 19  1  0
  8 20  1  0
  9 11  2  0
  9 24  1  0
 10 12  2  0
 10 25  1  0
 11 26  1  0
 12 27  1  0
 13 19  1  0
 13 21  2  0
 14 20  1  0
 14 22  1  0
 14 23  2  0
 15 24  1  0
 16 25  1  0
 17 26  1  0
 18 27  1  0
M  CHG  1  22  -1
M  END
>  <washed_aromatic_smiles>  (933) 
COc1ccc(cc1OC)CC(=O)c2cc(c(cc2CC(=O)O)OC)OC

>  <name>  (933) 
neg268604

$$$$
neg231798
     RDKit          3D

 27 30  0  0  0  0  0  0  0  0999 V2000
    1.8770   -0.2400   51.2850 C   0  0  0  0  0  0  0  0  0  0  0  0
    0.4940    2.0220   47.2310 C   0  0  0  0  0  0  0  0  0  0  0  0
    1.2820   -0.2920   50.0450 C   0  0  0  0  0  0  0  0  0  0  0  0
    0.5390    0.8730   47.9860 C   0  0  0  0  0  0  0  0  0  0  0  0
    2.3530    0.9820   51.7920 C   0  0  0  0  0  0  0  0  0  0  0  0
    1.0900    3.2040   47.7080 C   0  0  0  0  0  0  0  0  0  0  0  0
    3.3580    7.2870   54.4870 C   0  0  0  0  0  0  0  0  0  0  0  0
    3.9830    8.1710   55.3590 C   0  0  0  0  0  0  0  0  0  0  0  0
    3.4100    8.9080   52.7400 C   0  0  0  0  0  0  0  0  0  0  0  0
    1.1690    0.8750   49.2530 C   0  0  0  0  0  0  0  0  0  0  0  0
    1.7150    2.0830   49.7390 C   0  0  0  0  0  0  0  0  0  0  0  0
    2.2520    2.1430   51.0400 C   0  0  0  0  0  0  0  0  0  0  0  0
    1.7240    3.2400   48.9290 C   0  0  0  0  0  0  0  0  0  0  0  0
    3.0250    7.6480   53.1840 C   0  0  0  0  0  0  0  0  0  0  0  0
    4.3270    9.4460   54.9190 C   0  0  0  0  0  0  0  0  0  0  0  0
    4.0740    9.8020   53.5860 C   0  0  0  0  0  0  0  0  0  0  0  0
    2.6610    3.4370   51.5600 C   0  0  0  0  0  0  0  0  0  0  0  0
    2.4040    4.4420   49.3870 C   0  0  0  0  0  0  0  0  0  0  0  0
    4.8360   10.2440   57.2420 C   0  0  0  0  0  0  0  0  0  0  0  0
    5.1870   12.1210   53.6180 C   0  0  0  0  0  0  0  0  0  0  0  0
    2.2740    6.6780   52.2590 C   0  0  0  0  0  0  0  0  0  0  0  0
    3.1900    5.8730   51.3120 C   0  0  0  0  0  0  0  0  0  0  0  0
    2.6700    4.5820   50.7510 N   0  0  0  0  0  0  0  0  0  0  0  0
    3.0230    3.5660   52.7110 O   0  0  0  0  0  0  0  0  0  0  0  0
    2.8020    5.3080   48.6180 O   0  0  0  0  0  0  0  0  0  0  0  0
    4.9060   10.3480   55.8010 O   0  0  0  0  0  0  0  0  0  0  0  0
    4.4520   11.0230   53.0360 O   0  0  0  0  0  0  0  0  0  0  0  0
  1  3  2  0
  1  5  1  0
  2  4  1  0
  2  6  2  0
  3 10  1  0
  4 10  2  0
  5 12  2  0
  6 13  1  0
  7  8  2  0
  7 14  1  0
  8 15  1  0
  9 14  2  0
  9 16  1  0
 10 11  1  0
 11 12  1  0
 11 13  2  0
 12 17  1  0
 13 18  1  0
 14 21  1  0
 15 16  2  0
 15 26  1  0
 16 27  1  0
 17 23  1  0
 17 24  2  0
 18 23  1  0
 18 25  2  0
 19 26  1  0
 20 27  1  0
 21 22  1  0
 22 23  1  0
M  END
>  <washed_aromatic_smiles>  (934) 
COc1ccc(cc1OC)CCN2C(=O)c3cccc4c3c(ccc4)C2=O

>  <name>  (934) 
neg231798

$$$$
neg323560
     RDKit          3D

 28 30  0  0  0  0  0  0  0  0999 V2000
    6.6590   10.2520   53.2350 C   0  0  0  0  0  0  0  0  0  0  0  0
    5.6160   11.0930   52.8950 C   0  0  0  0  0  0  0  0  0  0  0  0
    6.4210    9.0910   53.9630 C   0  0  0  0  0  0  0  0  0  0  0  0
    4.3210   10.7320   53.2110 C   0  0  0  0  0  0  0  0  0  0  0  0
    5.1300    8.7570   54.3250 C   0  0  0  0  0  0  0  0  0  0  0  0
    1.6230    2.8660   47.7800 C   0  0  0  0  0  0  0  0  0  0  0  0
    0.6390    1.9400   48.0530 C   0  0  0  0  0  0  0  0  0  0  0  0
    2.6020    2.5440   49.9440 C   0  0  0  0  0  0  0  0  0  0  0  0
    4.0620    9.5420   53.8980 C   0  0  0  0  0  0  0  0  0  0  0  0
    2.6230    3.1610   48.6890 C   0  0  0  0  0  0  0  0  0  0  0  0
    0.6480    1.2820   49.2790 C   0  0  0  0  0  0  0  0  0  0  0  0
    1.6270    1.5860   50.2300 C   0  0  0  0  0  0  0  0  0  0  0  0
    2.7280    9.0350   54.0510 C   0  0  0  0  0  0  0  0  0  0  0  0
    1.0850    7.9630   53.4480 C   0  0  0  0  0  0  0  0  0  0  0  0
    1.7740    5.5780   50.4910 C   0  0  0  0  0  0  0  0  0  0  0  0
   -1.0570   -0.3720   48.5720 C   0  0  0  0  0  0  0  0  0  0  0  0
    2.6730    0.9580   52.4200 C   0  0  0  0  0  0  0  0  0  0  0  0
    3.6110    4.2190   48.2310 C   0  0  0  0  0  0  0  0  0  0  0  0
    1.7230    5.8710   51.9460 C   0  0  0  0  0  0  0  0  0  0  0  0
    3.0940    5.6130   48.4610 C   0  0  0  0  0  0  0  0  0  0  0  0
    1.9680    8.9490   55.0870 N   0  0  0  0  0  0  0  0  0  0  0  0
    0.8510    8.2770   54.6790 N   0  0  0  0  0  0  0  0  0  0  0  0
    2.9370    5.8240   49.8850 N   0  0  0  0  0  0  0  0  0  0  0  0
    0.7980    5.1240   49.9070 O   0  0  0  0  0  0  0  0  0  0  0  0
    2.1860    8.4810   53.0040 O   0  0  0  0  0  0  0  0  0  0  0  0
   -0.3150    0.3490   49.5790 O   0  0  0  0  0  0  0  0  0  0  0  0
    1.6020    0.9210   51.4470 O   0  0  0  0  0  0  0  0  0  0  0  0
    0.2570    6.8530   52.4210 S   0  0  0  0  0  0  0  0  0  0  0  0
  1  2  2  0
  1  3  1  0
  2  4  1  0
  3  5  2  0
  4  9  2  0
  5  9  1  0
  6  7  2  0
  6 10  1  0
  7 11  1  0
  8 10  2  0
  8 12  1  0
  9 13  1  0
 10 18  1  0
 11 12  2  0
 11 26  1  0
 12 27  1  0
 13 21  2  0
 13 25  1  0
 14 22  2  0
 14 25  1  0
 14 28  1  0
 15 19  1  0
 15 23  1  0
 15 24  2  0
 16 26  1  0
 17 27  1  0
 18 20  1  0
 19 28  1  0
 20 23  1  0
 21 22  1  0
M  END
>  <washed_aromatic_smiles>  (935) 
COc1ccc(cc1OC)CCNC(=O)CSc2nnc(o2)c3ccccc3

>  <name>  (935) 
neg323560

$$$$
neg116993
     RDKit          3D

 28 29  0  0  0  0  0  0  0  0999 V2000
    5.8440    8.5490   55.2690 C   0  0  0  0  0  0  0  0  0  0  0  0
    1.6130    4.1300   48.5940 C   0  0  0  0  0  0  0  0  0  0  0  0
    5.8030    8.2680   56.6360 C   0  0  0  0  0  0  0  0  0  0  0  0
    1.1480    2.9460   48.0320 C   0  0  0  0  0  0  0  0  0  0  0  0
    5.2500   10.8300   55.6720 C   0  0  0  0  0  0  0  0  0  0  0  0
    2.4120    2.9130   50.5220 C   0  0  0  0  0  0  0  0  0  0  0  0
    5.5480    9.8170   54.7850 C   0  0  0  0  0  0  0  0  0  0  0  0
    2.2380    4.1190   49.8400 C   0  0  0  0  0  0  0  0  0  0  0  0
    5.4230    9.2640   57.5240 C   0  0  0  0  0  0  0  0  0  0  0  0
    1.3050    1.7480   48.7160 C   0  0  0  0  0  0  0  0  0  0  0  0
    5.0510   10.5040   57.0130 C   0  0  0  0  0  0  0  0  0  0  0  0
    1.9600    1.7210   49.9560 C   0  0  0  0  0  0  0  0  0  0  0  0
    2.3490    7.7830   53.0340 C   0  0  0  0  0  0  0  0  0  0  0  0
    5.7850    7.8090   59.5190 C   0  0  0  0  0  0  0  0  0  0  0  0
    0.0020   -0.3100   48.8710 C   0  0  0  0  0  0  0  0  0  0  0  0
    3.0070   11.3810   56.9150 C   0  0  0  0  0  0  0  0  0  0  0  0
    2.9080    0.3260   51.8250 C   0  0  0  0  0  0  0  0  0  0  0  0
    5.3810   10.0390   53.3100 C   0  0  0  0  0  0  0  0  0  0  0  0
    2.7130    5.4060   50.4740 C   0  0  0  0  0  0  0  0  0  0  0  0
    3.9930    9.5570   52.8490 C   0  0  0  0  0  0  0  0  0  0  0  0
    1.7670    5.8970   51.5740 C   0  0  0  0  0  0  0  0  0  0  0  0
    3.5680    8.2910   53.4310 N   0  0  0  0  0  0  0  0  0  0  0  0
    2.5090    6.4560   52.6930 N   0  0  0  0  0  0  0  0  0  0  0  0
    5.3520    9.0380   58.8900 O   0  0  0  0  0  0  0  0  0  0  0  0
    0.7850    0.6240   48.1150 O   0  0  0  0  0  0  0  0  0  0  0  0
    4.2030   11.2770   57.7300 O   0  0  0  0  0  0  0  0  0  0  0  0
    2.1650    0.5080   50.5990 O   0  0  0  0  0  0  0  0  0  0  0  0
    0.8950    8.6330   53.0030 S   0  0  0  0  0  0  0  0  0  0  0  0
  1  3  2  0
  1  7  1  0
  2  4  2  0
  2  8  1  0
  3  9  1  0
  4 10  1  0
  5  7  2  0
  5 11  1  0
  6  8  2  0
  6 12  1  0
  7 18  1  0
  8 19  1  0
  9 11  2  0
  9 24  1  0
 10 12  2  0
 10 25  1  0
 11 26  1  0
 12 27  1  0
 13 22  1  0
 13 23  1  0
 13 28  2  0
 14 24  1  0
 15 25  1  0
 16 26  1  0
 17 27  1  0
 18 20  1  0
 19 21  1  0
 20 22  1  0
 21 23  1  0
M  END
>  <washed_aromatic_smiles>  (936) 
COc1ccc(cc1OC)CCNC(=S)NCCc2ccc(c(c2)OC)OC

>  <name>  (936) 
neg116993

$$$$
neg86330
     RDKit          3D

 29 31  0  0  0  0  0  0  0  0999 V2000
   -0.1070    8.6610   56.3510 C   0  0  0  0  0  0  0  0  0  0  0  0
    5.3460   12.9520   54.7700 C   0  0  0  0  0  0  0  0  0  0  0  0
    0.0970    8.5430   54.9770 C   0  0  0  0  0  0  0  0  0  0  0  0
    0.9690    8.9450   57.1690 C   0  0  0  0  0  0  0  0  0  0  0  0
    5.0460   12.3590   53.5520 C   0  0  0  0  0  0  0  0  0  0  0  0
    5.2700   12.2070   55.9390 C   0  0  0  0  0  0  0  0  0  0  0  0
    1.3620    8.6590   54.4440 C   0  0  0  0  0  0  0  0  0  0  0  0
    2.2550    9.0540   56.6420 C   0  0  0  0  0  0  0  0  0  0  0  0
    4.6260   11.0340   53.5050 C   0  0  0  0  0  0  0  0  0  0  0  0
    4.8510   10.8820   55.8920 C   0  0  0  0  0  0  0  0  0  0  0  0
    1.1980    4.1100   48.7820 C   0  0  0  0  0  0  0  0  0  0  0  0
    1.1610    2.8570   48.1830 C   0  0  0  0  0  0  0  0  0  0  0  0
    1.9770    3.1360   50.8400 C   0  0  0  0  0  0  0  0  0  0  0  0
    2.4680    8.8800   55.2710 C   0  0  0  0  0  0  0  0  0  0  0  0
    4.4810   10.2920   54.6800 C   0  0  0  0  0  0  0  0  0  0  0  0
    1.5050    4.2430   50.1350 C   0  0  0  0  0  0  0  0  0  0  0  0
    1.4580    1.7330   48.9390 C   0  0  0  0  0  0  0  0  0  0  0  0
    1.9540    1.8740   50.2440 C   0  0  0  0  0  0  0  0  0  0  0  0
    3.0590    6.1000   52.1860 C   0  0  0  0  0  0  0  0  0  0  0  0
    0.5700   -0.5380   49.1090 C   0  0  0  0  0  0  0  0  0  0  0  0
    3.0410    0.7830   52.2280 C   0  0  0  0  0  0  0  0  0  0  0  0
    1.2650    5.6080   50.7560 C   0  0  0  0  0  0  0  0  0  0  0  0
    3.6600    6.8000   53.4010 C   0  0  0  0  0  0  0  0  0  0  0  0
    3.8700    8.8900   54.6750 C   0  0  0  0  0  0  0  0  0  0  0  0
    1.7490    5.9010   52.0900 N   0  0  0  0  0  0  0  0  0  0  0  0
    3.8340    8.2780   53.3360 N   0  0  0  0  0  0  0  0  0  0  0  0
    3.8010    5.6520   51.3200 O   0  0  0  0  0  0  0  0  0  0  0  0
    1.1910    0.5160   48.3540 O   0  0  0  0  0  0  0  0  0  0  0  0
    2.4190    0.7570   50.9250 O   0  0  0  0  0  0  0  0  0  0  0  0
  1  3  2  0
  1  4  1  0
  2  5  2  0
  2  6  1  0
  3  7  1  0
  4  8  2  0
  5  9  1  0
  6 10  2  0
  7 14  2  0
  8 14  1  0
  9 15  2  0
 10 15  1  0
 11 12  2  0
 11 16  1  0
 12 17  1  0
 13 16  2  0
 13 18  1  0
 14 24  1  0
 15 24  1  0
 16 22  1  0
 17 18  2  0
 17 28  1  0
 18 29  1  0
 19 23  1  0
 19 25  1  0
 19 27  2  0
 20 28  1  0
 21 29  1  0
 22 25  1  0
 23 26  1  0
 24 26  1  0
M  END
>  <washed_aromatic_smiles>  (937) 
COc1ccc(cc1OC)CNC(=O)CNC(c2ccccc2)c3ccccc3

>  <name>  (937) 
neg86330

$$$$
neg83683
     RDKit          3D

 27 29  0  0  0  0  0  0  0  0999 V2000
    4.7880    9.3200   57.1160 C   0  0  0  0  0  0  0  0  0  0  0  0
    5.4070    8.7730   56.0050 C   0  0  0  0  0  0  0  0  0  0  0  0
    3.4100    9.4730   57.1180 C   0  0  0  0  0  0  0  0  0  0  0  0
    4.6560    8.4070   54.8990 C   0  0  0  0  0  0  0  0  0  0  0  0
    2.6450    9.0770   56.0270 C   0  0  0  0  0  0  0  0  0  0  0  0
    1.2880    7.3860   53.8280 C   0  0  0  0  0  0  0  0  0  0  0  0
    3.1110    8.1240   52.4800 C   0  0  0  0  0  0  0  0  0  0  0  0
    0.8580    6.5700   52.7870 C   0  0  0  0  0  0  0  0  0  0  0  0
    2.7210    7.2660   51.4650 C   0  0  0  0  0  0  0  0  0  0  0  0
    0.7520    1.1100   48.1390 C   0  0  0  0  0  0  0  0  0  0  0  0
   -0.3670    0.3640   48.4870 C   0  0  0  0  0  0  0  0  0  0  0  0
    1.3210    1.3510   50.4720 C   0  0  0  0  0  0  0  0  0  0  0  0
    3.2590    8.5460   54.8910 C   0  0  0  0  0  0  0  0  0  0  0  0
    2.5110    8.0570   53.7320 C   0  0  0  0  0  0  0  0  0  0  0  0
    1.6260    6.4340   51.6350 C   0  0  0  0  0  0  0  0  0  0  0  0
    1.5420    1.6800   49.1370 C   0  0  0  0  0  0  0  0  0  0  0  0
   -0.7320    0.2880   49.8310 C   0  0  0  0  0  0  0  0  0  0  0  0
    0.1880    0.6370   50.8200 C   0  0  0  0  0  0  0  0  0  0  0  0
    2.3440    4.9170   49.6550 C   0  0  0  0  0  0  0  0  0  0  0  0
   -3.1210   -0.6720   49.4420 C   0  0  0  0  0  0  0  0  0  0  0  0
    1.1370   -0.0230   52.9860 C   0  0  0  0  0  0  0  0  0  0  0  0
    1.2460    5.4120   50.5890 C   0  0  0  0  0  0  0  0  0  0  0  0
    2.5950    2.6990   48.8100 C   0  0  0  0  0  0  0  0  0  0  0  0
    2.7140    3.6680   49.8820 N   0  0  0  0  0  0  0  0  0  0  0  0
    2.7710    5.5100   48.6680 O   0  0  0  0  0  0  0  0  0  0  0  0
   -2.0570    0.0220   50.1910 O   0  0  0  0  0  0  0  0  0  0  0  0
   -0.0080    0.2920   52.1360 O   0  0  0  0  0  0  0  0  0  0  0  0
  1  2  2  0
  1  3  1  0
  2  4  1  0
  3  5  2  0
  4 13  2  0
  5 13  1  0
  6  8  2  0
  6 14  1  0
  7  9  1  0
  7 14  2  0
  8 15  1  0
  9 15  2  0
 10 11  2  0
 10 16  1  0
 11 17  1  0
 12 16  2  0
 12 18  1  0
 13 14  1  0
 15 22  1  0
 16 23  1  0
 17 18  2  0
 17 26  1  0
 18 27  1  0
 19 22  1  0
 19 24  1  0
 19 25  2  0
 20 26  1  0
 21 27  1  0
 23 24  1  0
M  END
>  <washed_aromatic_smiles>  (938) 
COc1ccc(cc1OC)CNC(=O)Cc2ccc(cc2)c3ccccc3

>  <name>  (938) 
neg83683

$$$$
neg270346
     RDKit          3D

 27 29  0  0  0  0  0  0  0  0999 V2000
    5.7100   11.9080   55.5820 C   0  0  0  0  0  0  0  0  0  0  0  0
    5.4030   11.2070   54.4200 C   0  0  0  0  0  0  0  0  0  0  0  0
    5.0400   11.6180   56.7650 C   0  0  0  0  0  0  0  0  0  0  0  0
    4.4040   10.2410   54.4320 C   0  0  0  0  0  0  0  0  0  0  0  0
    4.0430   10.6500   56.7820 C   0  0  0  0  0  0  0  0  0  0  0  0
    2.6460    2.6030   50.2940 C   0  0  0  0  0  0  0  0  0  0  0  0
    2.9380    1.2440   50.2100 C   0  0  0  0  0  0  0  0  0  0  0  0
    0.5490    2.0300   51.3310 C   0  0  0  0  0  0  0  0  0  0  0  0
    3.6840    9.9660   55.6100 C   0  0  0  0  0  0  0  0  0  0  0  0
    1.4460    3.0110   50.8630 C   0  0  0  0  0  0  0  0  0  0  0  0
    1.9990    0.3080   50.6160 C   0  0  0  0  0  0  0  0  0  0  0  0
    0.9250    0.7210   51.3660 C   0  0  0  0  0  0  0  0  0  0  0  0
    2.5000    9.0900   55.6170 C   0  0  0  0  0  0  0  0  0  0  0  0
    1.9870    5.5120   51.0260 C   0  0  0  0  0  0  0  0  0  0  0  0
    3.2210    6.9360   52.7260 C   0  0  0  0  0  0  0  0  0  0  0  0
    0.6690    6.9810   52.8980 C   0  0  0  0  0  0  0  0  0  0  0  0
    3.2110    7.2580   54.2070 C   0  0  0  0  0  0  0  0  0  0  0  0
    0.8820    8.1600   53.9030 C   0  0  0  0  0  0  0  0  0  0  0  0
    1.8940    6.6930   52.0060 C   0  0  0  0  0  0  0  0  0  0  0  0
    1.0330   -0.8820   48.9270 C   0  0  0  0  0  0  0  0  0  0  0  0
    1.2600   -0.5150   53.3220 C   0  0  0  0  0  0  0  0  0  0  0  0
    2.2240    8.2560   54.5470 N   0  0  0  0  0  0  0  0  0  0  0  0
    1.1690    4.4120   51.1730 N   0  0  0  0  0  0  0  0  0  0  0  0
    1.7130    9.0900   56.5570 O   0  0  0  0  0  0  0  0  0  0  0  0
    2.8160    5.5320   50.1360 O   0  0  0  0  0  0  0  0  0  0  0  0
    1.9410   -0.9460   50.0920 O   0  0  0  0  0  0  0  0  0  0  0  0
    0.3390   -0.0830   52.2790 O   0  0  0  0  0  0  0  0  0  0  0  0
  1  2  2  0
  1  3  1  0
  2  4  1  0
  3  5  2  0
  4  9  2  0
  5  9  1  0
  6  7  2  0
  6 10  1  0
  7 11  1  0
  8 10  2  0
  8 12  1  0
  9 13  1  0
 10 23  1  0
 11 12  2  0
 11 26  1  0
 12 27  1  0
 13 22  1  0
 13 24  2  0
 14 19  1  0
 14 23  1  0
 14 25  2  0
 15 17  1  0
 15 19  1  0
 16 18  1  0
 16 19  1  0
 17 22  1  0
 18 22  1  0
 20 26  1  0
 21 27  1  0
M  END
>  <washed_aromatic_smiles>  (939) 
COc1ccc(cc1OC)NC(=O)C2CCN(CC2)C(=O)c3ccccc3

>  <name>  (939) 
neg270346

$$$$
neg281417
     RDKit          3D

 25 26  0  0  0  0  0  0  0  0999 V2000
    3.5130    5.9960   52.7780 C   0  0  0  0  0  0  0  0  0  0  0  0
    3.6230    7.1090   53.6080 C   0  0  0  0  0  0  0  0  0  0  0  0
    1.1380    6.4010   52.5260 C   0  0  0  0  0  0  0  0  0  0  0  0
    2.2710    5.6300   52.2480 C   0  0  0  0  0  0  0  0  0  0  0  0
    2.4900    7.8320   53.9520 C   0  0  0  0  0  0  0  0  0  0  0  0
    1.2620    7.4880   53.3900 C   0  0  0  0  0  0  0  0  0  0  0  0
    2.4260    3.1430   51.7920 C   0  0  0  0  0  0  0  0  0  0  0  0
    1.0860    3.9480   47.7890 C   0  0  0  0  0  0  0  0  0  0  0  0
    0.5460    2.5920   47.2690 C   0  0  0  0  0  0  0  0  0  0  0  0
    2.5640    3.9050   47.9300 C   0  0  0  0  0  0  0  0  0  0  0  0
    0.5470    1.6190   48.4190 C   0  0  0  0  0  0  0  0  0  0  0  0
    2.8760    2.7860   48.8570 C   0  0  0  0  0  0  0  0  0  0  0  0
    1.8950    1.5960   49.0870 C   0  0  0  0  0  0  0  0  0  0  0  0
    3.7180    9.2730   55.5960 C   0  0  0  0  0  0  0  0  0  0  0  0
    0.0730    9.2960   52.6670 C   0  0  0  0  0  0  0  0  0  0  0  0
    4.2380   -0.0280   50.9340 C   0  0  0  0  0  0  0  0  0  0  0  0
    1.4490    2.0600   51.3730 C   0  0  0  0  0  0  0  0  0  0  0  0
    2.0820    4.4580   51.4490 N   0  0  0  0  0  0  0  0  0  0  0  0
    1.8460    1.0840   50.4460 N   0  0  0  0  0  0  0  0  0  0  0  0
    3.2580    2.8760   52.6090 O   0  0  0  0  0  0  0  0  0  0  0  0
    2.1490   -0.5600   52.3640 O   0  0  0  0  0  0  0  0  0  0  0  0
    2.1550   -1.3730   50.0950 O   0  0  0  0  0  0  0  0  0  0  0  0
    2.5480    8.9020   54.8380 O   0  0  0  0  0  0  0  0  0  0  0  0
    0.1890    8.2790   53.6520 O   0  0  0  0  0  0  0  0  0  0  0  0
    2.4930   -0.3370   50.9980 S   0  0  0  0  0  0  0  0  0  0  0  0
  1  2  2  0
  1  4  1  0
  2  5  1  0
  3  4  2  0
  3  6  1  0
  4 18  1  0
  5  6  2  0
  5 23  1  0
  6 24  1  0
  7 17  1  0
  7 18  1  0
  7 20  2  0
  8  9  1  0
  8 10  1  0
  9 11  1  0
 10 12  1  0
 11 13  1  0
 12 13  1  0
 13 19  1  0
 14 23  1  0
 15 24  1  0
 16 25  1  0
 17 19  1  0
 19 25  1  0
 21 25  2  0
 22 25  2  0
M  END
>  <washed_aromatic_smiles>  (940) 
COc1ccc(cc1OC)NC(=O)CN(C2CCCCC2)S(=O)(=O)C

>  <name>  (940) 
neg281417

$$$$
neg199357
     RDKit          3D

 29 30  0  0  0  0  0  0  0  0999 V2000
    3.4610    7.4310   54.7000 C   0  0  0  0  0  0  0  0  0  0  0  0
    4.0990    8.3500   55.5260 C   0  0  0  0  0  0  0  0  0  0  0  0
    1.2860    0.8990   50.2170 C   0  0  0  0  0  0  0  0  0  0  0  0
    3.5080    8.9880   52.8570 C   0  0  0  0  0  0  0  0  0  0  0  0
    2.6220    2.9570   51.5640 C   0  0  0  0  0  0  0  0  0  0  0  0
    1.4710    2.1310   49.5660 C   0  0  0  0  0  0  0  0  0  0  0  0
    3.1250    7.7590   53.3910 C   0  0  0  0  0  0  0  0  0  0  0  0
    2.0310    3.1930   50.3210 C   0  0  0  0  0  0  0  0  0  0  0  0
    4.4450    9.6000   55.0140 C   0  0  0  0  0  0  0  0  0  0  0  0
    1.7790    0.7080   51.4970 C   0  0  0  0  0  0  0  0  0  0  0  0
    4.1920    9.8920   53.6690 C   0  0  0  0  0  0  0  0  0  0  0  0
    2.5250    1.7030   52.1350 C   0  0  0  0  0  0  0  0  0  0  0  0
    1.1070    2.2760   48.1650 C   0  0  0  0  0  0  0  0  0  0  0  0
    2.3860    6.5130   51.3250 C   0  0  0  0  0  0  0  0  0  0  0  0
    4.8980   10.6020   57.2510 C   0  0  0  0  0  0  0  0  0  0  0  0
    2.5860   -1.3790   52.2460 C   0  0  0  0  0  0  0  0  0  0  0  0
    5.9730   11.0580   52.6100 C   0  0  0  0  0  0  0  0  0  0  0  0
    2.4990    1.0220   54.5220 C   0  0  0  0  0  0  0  0  0  0  0  0
    0.5970    1.1800   46.0440 C   0  0  0  0  0  0  0  0  0  0  0  0
    1.3950    5.4830   50.8330 C   0  0  0  0  0  0  0  0  0  0  0  0
    2.3550    6.7980   52.6720 N   0  0  0  0  0  0  0  0  0  0  0  0
    1.9640    4.5140   49.8860 N   0  0  0  0  0  0  0  0  0  0  0  0
    1.1390    3.3240   47.5380 O   0  0  0  0  0  0  0  0  0  0  0  0
    3.1650    7.0550   50.5720 O   0  0  0  0  0  0  0  0  0  0  0  0
    5.0380   10.5700   55.8120 O   0  0  0  0  0  0  0  0  0  0  0  0
    1.5150   -0.4620   52.1310 O   0  0  0  0  0  0  0  0  0  0  0  0
    4.6380   11.0790   53.1480 O   0  0  0  0  0  0  0  0  0  0  0  0
    3.1600    1.4920   53.3330 O   0  0  0  0  0  0  0  0  0  0  0  0
    0.7600    1.1560   47.4800 O   0  0  0  0  0  0  0  0  0  0  0  0
  1  2  2  0
  1  7  1  0
  2  9  1  0
  3  6  2  0
  3 10  1  0
  4  7  2  0
  4 11  1  0
  5  8  2  0
  5 12  1  0
  6  8  1  0
  6 13  1  0
  7 21  1  0
  8 22  1  0
  9 11  2  0
  9 25  1  0
 10 12  2  0
 10 26  1  0
 11 27  1  0
 12 28  1  0
 13 23  2  0
 13 29  1  0
 14 20  1  0
 14 21  1  0
 14 24  2  0
 15 25  1  0
 16 26  1  0
 17 27  1  0
 18 28  1  0
 19 29  1  0
 20 22  1  0
M  END
>  <washed_aromatic_smiles>  (941) 
COc1ccc(cc1OC)NC(=O)CNc2cc(c(cc2C(=O)OC)OC)OC

>  <name>  (941) 
neg199357

$$$$
neg25337
     RDKit          3D

 27 29  0  0  0  0  0  0  0  0999 V2000
    3.7890    6.6810   53.2930 C   0  0  0  0  0  0  0  0  0  0  0  0
    1.9360    7.8250   52.3560 C   0  0  0  0  0  0  0  0  0  0  0  0
    1.3030    3.9860   48.5910 C   0  0  0  0  0  0  0  0  0  0  0  0
    0.9840    2.8300   47.8820 C   0  0  0  0  0  0  0  0  0  0  0  0
    4.3000    7.8610   53.8040 C   0  0  0  0  0  0  0  0  0  0  0  0
    2.4800    9.0380   52.8090 C   0  0  0  0  0  0  0  0  0  0  0  0
    1.7930    2.6230   50.5410 C   0  0  0  0  0  0  0  0  0  0  0  0
    2.6570    6.6370   52.5000 C   0  0  0  0  0  0  0  0  0  0  0  0
    1.6560    3.8960   49.9410 C   0  0  0  0  0  0  0  0  0  0  0  0
    1.0590    1.5890   48.4990 C   0  0  0  0  0  0  0  0  0  0  0  0
    1.5280    1.4770   49.8060 C   0  0  0  0  0  0  0  0  0  0  0  0
    3.7080    9.0710   53.4890 C   0  0  0  0  0  0  0  0  0  0  0  0
    2.4120    5.3310   51.8760 C   0  0  0  0  0  0  0  0  0  0  0  0
    4.7390   10.7010   57.8160 C   0  0  0  0  0  0  0  0  0  0  0  0
    5.2030   12.0790   57.3800 C   0  0  0  0  0  0  0  0  0  0  0  0
    4.6470    9.9180   56.5100 C   0  0  0  0  0  0  0  0  0  0  0  0
    4.6880   12.2360   55.9580 C   0  0  0  0  0  0  0  0  0  0  0  0
   -0.4800   -0.2310   48.4430 C   0  0  0  0  0  0  0  0  0  0  0  0
    2.2600   -0.0790   51.6560 C   0  0  0  0  0  0  0  0  0  0  0  0
    4.3930   10.8950   55.4500 N   0  0  0  0  0  0  0  0  0  0  0  0
    1.8030    5.1580   50.6450 N   0  0  0  0  0  0  0  0  0  0  0  0
    2.8700    4.3330   52.4020 O   0  0  0  0  0  0  0  0  0  0  0  0
    6.0750   10.2050   53.7130 O   0  0  0  0  0  0  0  0  0  0  0  0
    4.2450   11.6270   53.0460 O   0  0  0  0  0  0  0  0  0  0  0  0
    0.6050    0.4900   47.8190 O   0  0  0  0  0  0  0  0  0  0  0  0
    1.7070    0.2090   50.3530 O   0  0  0  0  0  0  0  0  0  0  0  0
    4.6970   10.5460   53.8530 S   0  0  0  0  0  0  0  0  0  0  0  0
  1  5  2  0
  1  8  1  0
  2  6  1  0
  2  8  2  0
  3  4  2  0
  3  9  1  0
  4 10  1  0
  5 12  1  0
  6 12  2  0
  7  9  2  0
  7 11  1  0
  8 13  1  0
  9 21  1  0
 10 11  2  0
 10 25  1  0
 11 26  1  0
 12 27  1  0
 13 21  1  0
 13 22  2  0
 14 15  1  0
 14 16  1  0
 15 17  1  0
 16 20  1  0
 17 20  1  0
 18 25  1  0
 19 26  1  0
 20 27  1  0
 23 27  2  0
 24 27  2  0
M  END
>  <washed_aromatic_smiles>  (942) 
COc1ccc(cc1OC)NC(=O)c2ccc(cc2)S(=O)(=O)N3CCCC3

>  <name>  (942) 
neg25337

$$$$
neg250440
     RDKit          3D

 27 28  0  0  0  0  0  0  0  0999 V2000
    2.9950    3.9700   48.6840 C   0  0  0  0  0  0  0  0  0  0  0  0
    3.3590    5.3240   48.7350 C   0  0  0  0  0  0  0  0  0  0  0  0
    2.6910    3.2920   49.8750 C   0  0  0  0  0  0  0  0  0  0  0  0
    3.4100    6.0010   49.9580 C   0  0  0  0  0  0  0  0  0  0  0  0
    2.7590    3.9710   51.1040 C   0  0  0  0  0  0  0  0  0  0  0  0
    6.5440    9.0790   54.0230 C   0  0  0  0  0  0  0  0  0  0  0  0
    5.5940    8.6170   54.8820 C   0  0  0  0  0  0  0  0  0  0  0  0
    4.6390   10.7920   55.1680 C   0  0  0  0  0  0  0  0  0  0  0  0
    3.1240    5.3350   51.1630 C   0  0  0  0  0  0  0  0  0  0  0  0
    6.5040   10.4140   53.7020 C   0  0  0  0  0  0  0  0  0  0  0  0
    5.6420   11.3040   54.3590 C   0  0  0  0  0  0  0  0  0  0  0  0
    4.5580    9.4220   55.2890 C   0  0  0  0  0  0  0  0  0  0  0  0
    0.6790    8.9020   52.7600 C   0  0  0  0  0  0  0  0  0  0  0  0
    6.5360   11.1320   51.6110 C   0  0  0  0  0  0  0  0  0  0  0  0
    5.0190   13.5680   55.0010 C   0  0  0  0  0  0  0  0  0  0  0  0
   -0.2720    6.4630   52.3080 C   0  0  0  0  0  0  0  0  0  0  0  0
    2.6520    6.1720   52.3320 C   0  0  0  0  0  0  0  0  0  0  0  0
    2.1240    8.8750   53.2830 C   0  0  0  0  0  0  0  0  0  0  0  0
    3.3750    6.7950   53.5620 C   0  0  0  0  0  0  0  0  0  0  0  0
    2.5790    7.8680   54.2930 N   0  0  0  0  0  0  0  0  0  0  0  0
    0.1630    9.9550   52.4200 O   0  0  0  0  0  0  0  0  0  0  0  0
    3.6570    7.5490   56.6710 O   0  0  0  0  0  0  0  0  0  0  0  0
    2.1910    9.4280   56.3230 O   0  0  0  0  0  0  0  0  0  0  0  0
    7.2840   10.7610   52.6940 O   0  0  0  0  0  0  0  0  0  0  0  0
    5.7680   12.6570   54.1850 O   0  0  0  0  0  0  0  0  0  0  0  0
   -0.0800    7.8570   52.4430 O   0  0  0  0  0  0  0  0  0  0  0  0
    3.1480    8.5290   55.7840 S   0  0  0  0  0  0  0  0  0  0  0  0
  1  2  2  0
  1  3  1  0
  2  4  1  0
  3  5  2  0
  4  9  2  0
  5  9  1  0
  6  7  2  0
  6 10  1  0
  7 12  1  0
  8 11  1  0
  8 12  2  0
  9 17  1  0
 10 11  2  0
 10 24  1  0
 11 25  1  0
 12 27  1  0
 13 18  1  0
 13 21  2  0
 13 26  1  0
 14 24  1  0
 15 25  1  0
 16 26  1  0
 17 19  1  0
 18 20  1  0
 19 20  1  0
 20 27  1  0
 22 27  2  0
 23 27  2  0
M  END
>  <washed_aromatic_smiles>  (943) 
COc1ccc(cc1OC)S(=O)(=O)N(CCc2ccccc2)CC(=O)OC

>  <name>  (943) 
neg250440

$$$$
neg250194
     RDKit          3D

 30 32  0  0  0  0  0  0  0  0999 V2000
    3.0070    3.4560   48.7800 C   0  0  0  0  0  0  0  0  0  0  0  0
    2.1280    2.9420   49.7350 C   0  0  0  0  0  0  0  0  0  0  0  0
    3.3860    4.7950   48.8240 C   0  0  0  0  0  0  0  0  0  0  0  0
    1.5290    3.8290   50.6370 C   0  0  0  0  0  0  0  0  0  0  0  0
    2.8630    5.6540   49.7870 C   0  0  0  0  0  0  0  0  0  0  0  0
    5.7160   13.8400   57.6640 C   0  0  0  0  0  0  0  0  0  0  0  0
    5.4170   13.4320   56.3660 C   0  0  0  0  0  0  0  0  0  0  0  0
    5.5280   11.1420   57.0500 C   0  0  0  0  0  0  0  0  0  0  0  0
    1.8340    5.1980   50.6270 C   0  0  0  0  0  0  0  0  0  0  0  0
    5.8580   12.8910   58.6720 C   0  0  0  0  0  0  0  0  0  0  0  0
    5.6680   11.5420   58.3720 C   0  0  0  0  0  0  0  0  0  0  0  0
    5.3790   12.0840   56.0370 C   0  0  0  0  0  0  0  0  0  0  0  0
    1.6380    7.5070   54.2330 C   0  0  0  0  0  0  0  0  0  0  0  0
    3.9990    7.9190   53.6040 C   0  0  0  0  0  0  0  0  0  0  0  0
    3.4230    8.3660   55.9680 C   0  0  0  0  0  0  0  0  0  0  0  0
    3.9040    9.4070   53.2860 C   0  0  0  0  0  0  0  0  0  0  0  0
    3.2850    9.8220   55.5870 C   0  0  0  0  0  0  0  0  0  0  0  0
    3.0900    7.4940   54.7470 C   0  0  0  0  0  0  0  0  0  0  0  0
    6.8240   14.5350   60.2890 C   0  0  0  0  0  0  0  0  0  0  0  0
    5.5930    9.1590   59.1450 C   0  0  0  0  0  0  0  0  0  0  0  0
    0.8550    6.2470   51.1180 C   0  0  0  0  0  0  0  0  0  0  0  0
    0.2880    6.3290   52.5010 C   0  0  0  0  0  0  0  0  0  0  0  0
    4.2140   10.1620   54.4830 N   0  0  0  0  0  0  0  0  0  0  0  0
    1.4360    6.5720   53.3170 N   0  0  0  0  0  0  0  0  0  0  0  0
    0.7670    8.2810   54.6220 O   0  0  0  0  0  0  0  0  0  0  0  0
    4.2860   12.5910   53.7200 O   0  0  0  0  0  0  0  0  0  0  0  0
    6.3070   11.2950   53.7160 O   0  0  0  0  0  0  0  0  0  0  0  0
    6.2220   13.2570   59.9550 O   0  0  0  0  0  0  0  0  0  0  0  0
    5.7360   10.5890   59.3680 O   0  0  0  0  0  0  0  0  0  0  0  0
    5.0690   11.5810   54.3480 S   0  0  0  0  0  0  0  0  0  0  0  0
  1  2  2  0
  1  3  1  0
  2  4  1  0
  3  5  2  0
  4  9  2  0
  5  9  1  0
  6  7  2  0
  6 10  1  0
  7 12  1  0
  8 11  1  0
  8 12  2  0
  9 21  1  0
 10 11  2  0
 10 28  1  0
 11 29  1  0
 12 30  1  0
 13 18  1  0
 13 24  1  0
 13 25  2  0
 14 16  1  0
 14 18  1  0
 15 17  1  0
 15 18  1  0
 16 23  1  0
 17 23  1  0
 19 28  1  0
 20 29  1  0
 21 22  1  0
 22 24  1  0
 23 30  1  0
 26 30  2  0
 27 30  2  0
M  END
>  <washed_aromatic_smiles>  (944) 
COc1ccc(cc1OC)S(=O)(=O)N2CCC(CC2)C(=O)NCCc3ccccc3

>  <name>  (944) 
neg250194

$$$$
neg32400
     RDKit          3D

 36 39  0  0  0  0  0  0  0  0999 V2000
    4.1900    9.4400   53.3250 C   0  0  0  0  0  0  0  0  0  0  0  0
    2.4250    8.3230   54.5640 C   0  0  0  0  0  0  0  0  0  0  0  0
   -0.8240    0.1970   50.5320 C   0  0  0  0  0  0  0  0  0  0  0  0
    4.6330   10.0330   54.4950 C   0  0  0  0  0  0  0  0  0  0  0  0
    2.8650    8.9370   55.7270 C   0  0  0  0  0  0  0  0  0  0  0  0
    0.2960    0.7140   51.1260 C   0  0  0  0  0  0  0  0  0  0  0  0
    1.2340    1.0980   48.9380 C   0  0  0  0  0  0  0  0  0  0  0  0
    3.1190    8.5520   53.3820 C   0  0  0  0  0  0  0  0  0  0  0  0
   -0.9100    0.0500   49.1570 C   0  0  0  0  0  0  0  0  0  0  0  0
    0.0970    0.5630   48.3460 C   0  0  0  0  0  0  0  0  0  0  0  0
    3.9940    9.7590   55.7060 C   0  0  0  0  0  0  0  0  0  0  0  0
    1.3400    1.1360   50.3280 C   0  0  0  0  0  0  0  0  0  0  0  0
    3.1570    6.5980   51.8970 C   0  0  0  0  0  0  0  0  0  0  0  0
    6.1210    7.4810   59.5790 C   0  0  0  0  0  0  0  0  0  0  0  0
    6.6230    7.0180   58.2300 C   0  0  0  0  0  0  0  0  0  0  0  0
    3.6410    5.3600   49.5120 C   0  0  0  0  0  0  0  0  0  0  0  0
    1.4010    5.5340   50.6000 C   0  0  0  0  0  0  0  0  0  0  0  0
    5.6850    8.9120   59.3100 C   0  0  0  0  0  0  0  0  0  0  0  0
    5.9110    7.9270   57.2180 C   0  0  0  0  0  0  0  0  0  0  0  0
    3.0910    3.9200   49.3050 C   0  0  0  0  0  0  0  0  0  0  0  0
    1.6830    4.1660   51.2060 C   0  0  0  0  0  0  0  0  0  0  0  0
    2.7660    6.2020   50.4830 C   0  0  0  0  0  0  0  0  0  0  0  0
   -3.3230   -0.8750   49.2340 C   0  0  0  0  0  0  0  0  0  0  0  0
    0.7660    1.0140   45.9480 C   0  0  0  0  0  0  0  0  0  0  0  0
    5.1870    8.9390   57.9610 N   0  0  0  0  0  0  0  0  0  0  0  0
    2.7600    3.3630   50.6270 N   0  0  0  0  0  0  0  0  0  0  0  0
    2.7520    7.8750   52.2210 N   0  0  0  0  0  0  0  0  0  0  0  0
    3.7160    5.8890   52.7180 O   0  0  0  0  0  0  0  0  0  0  0  0
    5.7760   11.1950   56.9460 O   0  0  0  0  0  0  0  0  0  0  0  0
    3.6470   10.9320   58.0110 O   0  0  0  0  0  0  0  0  0  0  0  0
    2.6220    1.6770   52.5190 O   0  0  0  0  0  0  0  0  0  0  0  0
    3.8700    0.9950   50.5840 O   0  0  0  0  0  0  0  0  0  0  0  0
   -2.0460   -0.5190   48.5880 O   0  0  0  0  0  0  0  0  0  0  0  0
   -0.1230    0.5990   46.9900 O   0  0  0  0  0  0  0  0  0  0  0  0
    4.6750   10.3470   57.2380 S   0  0  0  0  0  0  0  0  0  0  0  0
    2.7870    1.7490   51.1050 S   0  0  0  0  0  0  0  0  0  0  0  0
  1  4  2  0
  1  8  1  0
  2  5  1  0
  2  8  2  0
  3  6  2  0
  3  9  1  0
  4 11  1  0
  5 11  2  0
  6 12  1  0
  7 10  1  0
  7 12  2  0
  8 27  1  0
  9 10  2  0
  9 33  1  0
 10 34  1  0
 11 35  1  0
 12 36  1  0
 13 22  1  0
 13 27  1  0
 13 28  2  0
 14 15  1  0
 14 18  1  0
 15 19  1  0
 16 20  1  0
 16 22  1  0
 17 21  1  0
 17 22  1  0
 18 25  1  0
 19 25  1  0
 20 26  1  0
 21 26  1  0
 23 33  1  0
 24 34  1  0
 25 35  1  0
 26 36  1  0
 29 35  2  0
 30 35  2  0
 31 36  2  0
 32 36  2  0
M  END
>  <washed_aromatic_smiles>  (945) 
COc1ccc(cc1OC)S(=O)(=O)N2CCC(CC2)C(=O)Nc3ccc(cc3)S(=O)(=O)N4CCCC4

>  <name>  (945) 
neg32400

$$$$
neg110465
     RDKit          3D

 27 29  0  0  0  0  0  0  0  0999 V2000
    0.2230    0.8900   47.7930 C   0  0  0  0  0  0  0  0  0  0  0  0
    0.9160    2.0870   47.8120 C   0  0  0  0  0  0  0  0  0  0  0  0
    4.9450    8.5130   54.3580 C   0  0  0  0  0  0  0  0  0  0  0  0
    3.7250    7.8820   54.1260 C   0  0  0  0  0  0  0  0  0  0  0  0
    2.9240    9.8290   52.9690 C   0  0  0  0  0  0  0  0  0  0  0  0
    0.4270   -0.0350   48.8120 C   0  0  0  0  0  0  0  0  0  0  0  0
    1.9670    1.3390   49.8360 C   0  0  0  0  0  0  0  0  0  0  0  0
    1.8220    2.3190   48.8450 C   0  0  0  0  0  0  0  0  0  0  0  0
    5.1490    9.7930   53.8610 C   0  0  0  0  0  0  0  0  0  0  0  0
    4.1000   10.4990   53.2800 C   0  0  0  0  0  0  0  0  0  0  0  0
    2.7330    8.5200   53.3770 C   0  0  0  0  0  0  0  0  0  0  0  0
    2.6180    3.5430   48.8560 C   0  0  0  0  0  0  0  0  0  0  0  0
    1.6660    4.2400   51.0630 C   0  0  0  0  0  0  0  0  0  0  0  0
    3.2510    5.7130   49.9020 C   0  0  0  0  0  0  0  0  0  0  0  0
    0.8340    5.5010   51.3410 C   0  0  0  0  0  0  0  0  0  0  0  0
    3.0010    6.6110   51.1430 C   0  0  0  0  0  0  0  0  0  0  0  0
    6.8190   10.9180   52.6070 C   0  0  0  0  0  0  0  0  0  0  0  0
    4.6660   12.8280   54.0230 C   0  0  0  0  0  0  0  0  0  0  0  0
    1.2770    0.1990   49.8140 N   0  0  0  0  0  0  0  0  0  0  0  0
    2.5630    4.4120   49.9310 N   0  0  0  0  0  0  0  0  0  0  0  0
    1.6700    6.5990   51.7540 N   0  0  0  0  0  0  0  0  0  0  0  0
    3.3500    3.8300   47.9130 O   0  0  0  0  0  0  0  0  0  0  0  0
    0.7920    6.9790   54.0930 O   0  0  0  0  0  0  0  0  0  0  0  0
    0.2880    8.6240   52.4230 O   0  0  0  0  0  0  0  0  0  0  0  0
    6.4070   10.3000   53.8430 O   0  0  0  0  0  0  0  0  0  0  0  0
    4.1940   11.8680   53.0230 O   0  0  0  0  0  0  0  0  0  0  0  0
    1.2190    7.6820   52.9430 S   0  0  0  0  0  0  0  0  0  0  0  0
  1  2  2  0
  1  6  1  0
  2  8  1  0
  3  4  2  0
  3  9  1  0
  4 11  1  0
  5 10  1  0
  5 11  2  0
  6 19  2  0
  7  8  2  0
  7 19  1  0
  8 12  1  0
  9 10  2  0
  9 25  1  0
 10 26  1  0
 11 27  1  0
 12 20  1  0
 12 22  2  0
 13 15  1  0
 13 20  1  0
 14 16  1  0
 14 20  1  0
 15 21  1  0
 16 21  1  0
 17 25  1  0
 18 26  1  0
 21 27  1  0
 23 27  2  0
 24 27  2  0
M  END
>  <washed_aromatic_smiles>  (946) 
COc1ccc(cc1OC)S(=O)(=O)N2CCN(CC2)C(=O)c3cccnc3

>  <name>  (946) 
neg110465

$$$$
neg59774
     RDKit          3D

 28 30  0  0  0  0  0  0  0  0999 V2000
    2.6860    2.2520   51.6650 C   0  0  0  0  0  0  0  0  0  0  0  0
    2.2700    0.9940   51.2430 C   0  0  0  0  0  0  0  0  0  0  0  0
    2.7790    9.8710   56.5720 C   0  0  0  0  0  0  0  0  0  0  0  0
    2.4030    9.0830   55.4900 C   0  0  0  0  0  0  0  0  0  0  0  0
    1.8550    3.2390   49.5920 C   0  0  0  0  0  0  0  0  0  0  0  0
    4.6670    8.3240   55.2380 C   0  0  0  0  0  0  0  0  0  0  0  0
    2.4410    3.3640   50.8520 C   0  0  0  0  0  0  0  0  0  0  0  0
    1.6110    0.8700   50.0220 C   0  0  0  0  0  0  0  0  0  0  0  0
    1.4330    1.9840   49.1860 C   0  0  0  0  0  0  0  0  0  0  0  0
    4.0840    9.8240   57.0350 C   0  0  0  0  0  0  0  0  0  0  0  0
    5.0090    8.9900   56.4080 C   0  0  0  0  0  0  0  0  0  0  0  0
    3.3410    8.3140   54.8070 C   0  0  0  0  0  0  0  0  0  0  0  0
    3.2830    5.6550   50.6310 C   0  0  0  0  0  0  0  0  0  0  0  0
    0.0080   -0.3150   48.7320 C   0  0  0  0  0  0  0  0  0  0  0  0
    0.3350    0.5760   47.5340 C   0  0  0  0  0  0  0  0  0  0  0  0
    5.1320   11.8440   57.7240 C   0  0  0  0  0  0  0  0  0  0  0  0
    6.3220    8.1200   58.2560 C   0  0  0  0  0  0  0  0  0  0  0  0
    2.7870    7.0540   50.9000 C   0  0  0  0  0  0  0  0  0  0  0  0
    2.6920    4.6520   51.3500 N   0  0  0  0  0  0  0  0  0  0  0  0
    3.0470    7.8790   52.0890 N   0  0  0  0  0  0  0  0  0  0  0  0
    4.0180    5.4010   49.6920 O   0  0  0  0  0  0  0  0  0  0  0  0
    3.5970    6.0270   53.6120 O   0  0  0  0  0  0  0  0  0  0  0  0
    1.3830    6.9910   53.6950 O   0  0  0  0  0  0  0  0  0  0  0  0
    1.1010   -0.3570   49.6630 O   0  0  0  0  0  0  0  0  0  0  0  0
    0.7980    1.8710   47.9630 O   0  0  0  0  0  0  0  0  0  0  0  0
    4.4490   10.6270   58.0850 O   0  0  0  0  0  0  0  0  0  0  0  0
    6.2390    8.7500   56.9580 O   0  0  0  0  0  0  0  0  0  0  0  0
    2.7850    7.1830   53.5380 S   0  0  0  0  0  0  0  0  0  0  0  0
  1  2  2  0
  1  7  1  0
  2  8  1  0
  3  4  2  0
  3 10  1  0
  4 12  1  0
  5  7  2  0
  5  9  1  0
  6 11  1  0
  6 12  2  0
  7 19  1  0
  8  9  2  0
  8 24  1  0
  9 25  1  0
 10 11  2  0
 10 26  1  0
 11 27  1  0
 12 28  1  0
 13 18  1  0
 13 19  1  0
 13 21  2  0
 14 15  1  0
 14 24  1  0
 15 25  1  0
 16 26  1  0
 17 27  1  0
 18 20  1  0
 20 28  1  0
 22 28  2  0
 23 28  2  0
M  END
>  <washed_aromatic_smiles>  (947) 
COc1ccc(cc1OC)S(=O)(=O)NCC(=O)Nc2ccc3c(c2)OCCO3

>  <name>  (947) 
neg59774

$$$$
neg68985
     RDKit          3D

 28 30  0  0  0  0  0  0  0  0999 V2000
    1.5730    3.1820   48.6320 C   0  0  0  0  0  0  0  0  0  0  0  0
    1.7740    1.8930   49.1200 C   0  0  0  0  0  0  0  0  0  0  0  0
    0.9320    7.3960   53.2490 C   0  0  0  0  0  0  0  0  0  0  0  0
    1.7460    4.2810   49.4640 C   0  0  0  0  0  0  0  0  0  0  0  0
    0.7470    8.0830   54.4400 C   0  0  0  0  0  0  0  0  0  0  0  0
    2.4040    2.7950   51.2620 C   0  0  0  0  0  0  0  0  0  0  0  0
    3.1800    8.2000   53.1860 C   0  0  0  0  0  0  0  0  0  0  0  0
    2.2010    1.6800   50.4410 C   0  0  0  0  0  0  0  0  0  0  0  0
    2.1910    7.3730   52.6470 C   0  0  0  0  0  0  0  0  0  0  0  0
    2.1260    4.0790   50.7920 C   0  0  0  0  0  0  0  0  0  0  0  0
    1.8270    8.6950   55.0870 C   0  0  0  0  0  0  0  0  0  0  0  0
    3.0570    8.8290   54.4150 C   0  0  0  0  0  0  0  0  0  0  0  0
    2.4850    6.4650   51.5370 C   0  0  0  0  0  0  0  0  0  0  0  0
    2.4060    0.3220   50.9600 C   0  0  0  0  0  0  0  0  0  0  0  0
    5.0680   10.7810   58.7050 C   0  0  0  0  0  0  0  0  0  0  0  0
    5.3820    9.2930   58.7150 C   0  0  0  0  0  0  0  0  0  0  0  0
    4.9140   11.1110   57.2300 C   0  0  0  0  0  0  0  0  0  0  0  0
    4.6500    8.7580   57.4870 C   0  0  0  0  0  0  0  0  0  0  0  0
    0.4110    8.9460   57.2600 C   0  0  0  0  0  0  0  0  0  0  0  0
    4.4300    9.8950   56.5900 N   0  0  0  0  0  0  0  0  0  0  0  0
    2.1430    5.1400   51.7360 N   0  0  0  0  0  0  0  0  0  0  0  0
    3.0700    6.7780   50.5080 O   0  0  0  0  0  0  0  0  0  0  0  0
    3.1110    0.1470   51.9910 O   0  0  0  0  0  0  0  0  0  0  0  0
    5.6760    8.8870   54.6640 O   0  0  0  0  0  0  0  0  0  0  0  0
    4.5500   10.9940   54.3300 O   0  0  0  0  0  0  0  0  0  0  0  0
    1.8670   -0.6550   50.3740 O   0  0  0  0  0  0  0  0  0  0  0  0
    1.6580    9.1200   56.4110 O   0  0  0  0  0  0  0  0  0  0  0  0
    4.5470    9.7110   54.9500 S   0  0  0  0  0  0  0  0  0  0  0  0
  1  2  2  0
  1  4  1  0
  2  8  1  0
  3  5  2  0
  3  9  1  0
  4 10  2  0
  5 11  1  0
  6  8  2  0
  6 10  1  0
  7  9  2  0
  7 12  1  0
  8 14  1  0
  9 13  1  0
 10 21  1  0
 11 12  2  0
 11 27  1  0
 12 28  1  0
 13 21  1  0
 13 22  2  0
 14 23  1  0
 14 26  2  0
 15 16  1  0
 15 17  1  0
 16 18  1  0
 17 20  1  0
 18 20  1  0
 19 27  1  0
 20 28  1  0
 24 28  2  0
 25 28  2  0
M  CHG  1  23  -1
M  END
>  <washed_aromatic_smiles>  (948) 
COc1ccc(cc1S(=O)(=O)N2CCCC2)C(=O)Nc3cccc(c3)C(=O)O

>  <name>  (948) 
neg68985

$$$$
neg5599
     RDKit          3D

 28 30  0  0  0  0  0  0  0  0999 V2000
    2.0550    4.5670   49.0050 C   0  0  0  0  0  0  0  0  0  0  0  0
    1.5510    3.6840   48.0630 C   0  0  0  0  0  0  0  0  0  0  0  0
    3.4560    6.8190   53.8550 C   0  0  0  0  0  0  0  0  0  0  0  0
    3.3130    8.6570   52.3510 C   0  0  0  0  0  0  0  0  0  0  0  0
    1.8750    2.8500   50.6800 C   0  0  0  0  0  0  0  0  0  0  0  0
    3.8660    9.0870   54.6690 C   0  0  0  0  0  0  0  0  0  0  0  0
    3.1750    7.2770   52.5630 C   0  0  0  0  0  0  0  0  0  0  0  0
    2.1730    4.1750   50.3470 C   0  0  0  0  0  0  0  0  0  0  0  0
    1.1650    2.4020   48.4310 C   0  0  0  0  0  0  0  0  0  0  0  0
    3.7630    7.7260   54.8800 C   0  0  0  0  0  0  0  0  0  0  0  0
    3.6820    9.5210   53.3730 C   0  0  0  0  0  0  0  0  0  0  0  0
    1.3240    1.9690   49.7370 C   0  0  0  0  0  0  0  0  0  0  0  0
    2.9660    6.4040   51.3750 C   0  0  0  0  0  0  0  0  0  0  0  0
    2.3030   -0.3930   54.4300 C   0  0  0  0  0  0  0  0  0  0  0  0
    2.9980   -0.9950   53.2270 C   0  0  0  0  0  0  0  0  0  0  0  0
    1.7380    0.8800   53.8860 C   0  0  0  0  0  0  0  0  0  0  0  0
    2.3650   -1.0220   51.8340 C   0  0  0  0  0  0  0  0  0  0  0  0
    0.7510    0.5170   52.7770 C   0  0  0  0  0  0  0  0  0  0  0  0
    0.4770    1.5450   46.1350 C   0  0  0  0  0  0  0  0  0  0  0  0
    1.4180    0.0520   51.6090 N   0  0  0  0  0  0  0  0  0  0  0  0
    2.5250    5.0760   51.4520 N   0  0  0  0  0  0  0  0  0  0  0  0
    3.2480    6.8200   50.2630 O   0  0  0  0  0  0  0  0  0  0  0  0
   -0.6880    0.4140   50.2960 O   0  0  0  0  0  0  0  0  0  0  0  0
    1.2070   -0.6200   49.2050 O   0  0  0  0  0  0  0  0  0  0  0  0
    0.5880    1.5100   47.5520 O   0  0  0  0  0  0  0  0  0  0  0  0
    4.0640    7.3010   56.1220 F   0  0  0  0  0  0  0  0  0  0  0  0
    3.9550   10.8120   53.0970 F   0  0  0  0  0  0  0  0  0  0  0  0
    0.7260    0.3300   50.1510 S   0  0  0  0  0  0  0  0  0  0  0  0
  1  2  2  0
  1  8  1  0
  2  9  1  0
  3  7  2  0
  3 10  1  0
  4  7  1  0
  4 11  2  0
  5  8  2  0
  5 12  1  0
  6 10  2  0
  6 11  1  0
  7 13  1  0
  8 21  1  0
  9 12  2  0
  9 25  1  0
 10 26  1  0
 11 27  1  0
 12 28  1  0
 13 21  1  0
 13 22  2  0
 14 15  1  0
 14 16  1  0
 15 17  1  0
 16 18  1  0
 17 20  1  0
 18 20  1  0
 19 25  1  0
 20 28  1  0
 23 28  2  0
 24 28  2  0
M  END
>  <washed_aromatic_smiles>  (949) 
COc1ccc(cc1S(=O)(=O)N2CCCCC2)NC(=O)c3cc(cc(c3)F)F

>  <name>  (949) 
neg5599

$$$$
neg53924
     RDKit          3D

 28 30  0  0  0  0  0  0  0  0999 V2000
    4.8720   10.8190   55.7050 C   0  0  0  0  0  0  0  0  0  0  0  0
    4.3070    9.7650   56.4170 C   0  0  0  0  0  0  0  0  0  0  0  0
    4.9780   10.7360   54.3200 C   0  0  0  0  0  0  0  0  0  0  0  0
    1.8520    4.3570   48.7810 C   0  0  0  0  0  0  0  0  0  0  0  0
    1.6260    3.1710   48.1030 C   0  0  0  0  0  0  0  0  0  0  0  0
    3.8470    8.6360   55.7490 C   0  0  0  0  0  0  0  0  0  0  0  0
    4.5140    9.6130   53.6450 C   0  0  0  0  0  0  0  0  0  0  0  0
    2.0520    3.0970   50.8240 C   0  0  0  0  0  0  0  0  0  0  0  0
    2.0090    4.3060   50.1590 C   0  0  0  0  0  0  0  0  0  0  0  0
    1.5410    1.9570   48.8020 C   0  0  0  0  0  0  0  0  0  0  0  0
    3.9340    8.5480   54.3530 C   0  0  0  0  0  0  0  0  0  0  0  0
    1.7820    1.8860   50.1880 C   0  0  0  0  0  0  0  0  0  0  0  0
    2.8240    6.5390   50.8220 C   0  0  0  0  0  0  0  0  0  0  0  0
    2.9340    1.3810   53.2190 C   0  0  0  0  0  0  0  0  0  0  0  0
    2.4580   -0.9790   53.2520 C   0  0  0  0  0  0  0  0  0  0  0  0
    3.2180    1.3130   54.7220 C   0  0  0  0  0  0  0  0  0  0  0  0
    2.8900   -0.8650   54.7290 C   0  0  0  0  0  0  0  0  0  0  0  0
    0.5920    0.7250   46.7960 C   0  0  0  0  0  0  0  0  0  0  0  0
    2.7150    7.5940   51.9130 C   0  0  0  0  0  0  0  0  0  0  0  0
    2.6660    0.2030   52.4000 N   0  0  0  0  0  0  0  0  0  0  0  0
    2.0480    5.4400   50.9980 N   0  0  0  0  0  0  0  0  0  0  0  0
    3.5450    6.6200   49.8430 O   0  0  0  0  0  0  0  0  0  0  0  0
    0.2370    0.4590   51.7310 O   0  0  0  0  0  0  0  0  0  0  0  0
    1.7120   -0.7740   50.2730 O   0  0  0  0  0  0  0  0  0  0  0  0
    2.5140    0.3240   55.3120 O   0  0  0  0  0  0  0  0  0  0  0  0
    1.1650    0.8130   48.1250 O   0  0  0  0  0  0  0  0  0  0  0  0
    3.3300    7.0980   53.5650 S   0  0  0  0  0  0  0  0  0  0  0  0
    1.5310    0.3380   51.1440 S   0  0  0  0  0  0  0  0  0  0  0  0
  1  2  2  0
  1  3  1  0
  2  6  1  0
  3  7  2  0
  4  5  2  0
  4  9  1  0
  5 10  1  0
  6 11  2  0
  7 11  1  0
  8  9  2  0
  8 12  1  0
  9 21  1  0
 10 12  2  0
 10 26  1  0
 11 27  1  0
 12 28  1  0
 13 19  1  0
 13 21  1  0
 13 22  2  0
 14 16  1  0
 14 20  1  0
 15 17  1  0
 15 20  1  0
 16 25  1  0
 17 25  1  0
 18 26  1  0
 19 27  1  0
 20 28  1  0
 23 28  2  0
 24 28  2  0
M  END
>  <washed_aromatic_smiles>  (950) 
COc1ccc(cc1S(=O)(=O)N2CCOCC2)NC(=O)CSc3ccccc3

>  <name>  (950) 
neg53924

$$$$
neg136126
     RDKit          3D

 32 35  0  0  0  0  0  0  0  0999 V2000
    0.9220    0.0790   46.5320 C   0  0  0  0  0  0  0  0  0  0  0  0
    1.0900   -0.3080   47.8600 C   0  0  0  0  0  0  0  0  0  0  0  0
    0.6120    1.3870   46.2190 C   0  0  0  0  0  0  0  0  0  0  0  0
    1.2240    0.6600   48.8460 C   0  0  0  0  0  0  0  0  0  0  0  0
    0.6980    2.3380   47.2140 C   0  0  0  0  0  0  0  0  0  0  0  0
    1.5810    3.3010   50.5680 C   0  0  0  0  0  0  0  0  0  0  0  0
    2.6290    3.9460   48.5000 C   0  0  0  0  0  0  0  0  0  0  0  0
    1.9700    4.5080   51.1270 C   0  0  0  0  0  0  0  0  0  0  0  0
    3.0180    5.1430   49.0530 C   0  0  0  0  0  0  0  0  0  0  0  0
    3.3660    6.9280   53.9980 C   0  0  0  0  0  0  0  0  0  0  0  0
    3.7710    7.4120   55.2170 C   0  0  0  0  0  0  0  0  0  0  0  0
    3.3320    9.1640   53.1260 C   0  0  0  0  0  0  0  0  0  0  0  0
    1.1920    1.9990   48.4690 C   0  0  0  0  0  0  0  0  0  0  0  0
    1.8110    3.0680   49.2150 C   0  0  0  0  0  0  0  0  0  0  0  0
    2.6130    5.4720   50.3460 C   0  0  0  0  0  0  0  0  0  0  0  0
    2.9830    7.8170   53.0200 C   0  0  0  0  0  0  0  0  0  0  0  0
    3.9170    8.7710   55.4110 C   0  0  0  0  0  0  0  0  0  0  0  0
    3.9380    9.6400   54.2950 C   0  0  0  0  0  0  0  0  0  0  0  0
    2.8310    6.8190   50.8190 C   0  0  0  0  0  0  0  0  0  0  0  0
    4.8580   13.3610   55.9090 C   0  0  0  0  0  0  0  0  0  0  0  0
    5.6550   11.3000   56.7040 C   0  0  0  0  0  0  0  0  0  0  0  0
    5.6140   13.8250   57.2140 C   0  0  0  0  0  0  0  0  0  0  0  0
    5.2250   11.6480   58.1300 C   0  0  0  0  0  0  0  0  0  0  0  0
    4.6890    8.3950   57.7740 C   0  0  0  0  0  0  0  0  0  0  0  0
    4.8020   11.8940   55.7230 N   0  0  0  0  0  0  0  0  0  0  0  0
    2.2420    7.2360   51.9830 N   0  0  0  0  0  0  0  0  0  0  0  0
    3.4520    7.6250   50.1630 O   0  0  0  0  0  0  0  0  0  0  0  0
    6.2060   10.8970   53.8870 O   0  0  0  0  0  0  0  0  0  0  0  0
    4.2110   12.0870   53.2720 O   0  0  0  0  0  0  0  0  0  0  0  0
    5.3920   13.0310   58.3760 O   0  0  0  0  0  0  0  0  0  0  0  0
    3.9790    9.1550   56.7350 O   0  0  0  0  0  0  0  0  0  0  0  0
    4.8550   11.2190   54.1990 S   0  0  0  0  0  0  0  0  0  0  0  0
  1  2  2  0
  1  3  1  0
  2  4  1  0
  3  5  2  0
  4 13  2  0
  5 13  1  0
  6  8  2  0
  6 14  1  0
  7  9  1  0
  7 14  2  0
  8 15  1  0
  9 15  2  0
 10 11  2  0
 10 16  1  0
 11 17  1  0
 12 16  2  0
 12 18  1  0
 13 14  1  0
 15 19  1  0
 16 26  1  0
 17 18  2  0
 17 31  1  0
 18 32  1  0
 19 26  1  0
 19 27  2  0
 20 22  1  0
 20 25  1  0
 21 23  1  0
 21 25  1  0
 22 30  1  0
 23 30  1  0
 24 31  1  0
 25 32  1  0
 28 32  2  0
 29 32  2  0
M  END
>  <washed_aromatic_smiles>  (951) 
COc1ccc(cc1S(=O)(=O)N2CCOCC2)NC(=O)c3ccc(cc3)c4ccccc4

>  <name>  (951) 
neg136126

$$$$
neg161277
     RDKit          3D

 25 27  0  0  0  0  0  0  0  0999 V2000
    1.0510    7.8890   53.9100 C   0  0  0  0  0  0  0  0  0  0  0  0
    2.0080    4.6100   48.8690 C   0  0  0  0  0  0  0  0  0  0  0  0
    1.3210    3.9310   47.9020 C   0  0  0  0  0  0  0  0  0  0  0  0
    1.0690    6.8730   52.9560 C   0  0  0  0  0  0  0  0  0  0  0  0
    1.9080    2.6560   50.2770 C   0  0  0  0  0  0  0  0  0  0  0  0
    2.2410    8.5290   53.8280 C   0  0  0  0  0  0  0  0  0  0  0  0
    2.2130    4.0070   50.1020 C   0  0  0  0  0  0  0  0  0  0  0  0
    0.9300    2.6170   48.0870 C   0  0  0  0  0  0  0  0  0  0  0  0
    1.2300    1.9340   49.2770 C   0  0  0  0  0  0  0  0  0  0  0  0
    2.2740    6.9370   52.3220 C   0  0  0  0  0  0  0  0  0  0  0  0
    2.7990    6.1480   51.2270 C   0  0  0  0  0  0  0  0  0  0  0  0
    0.4840    0.4790   52.2810 C   0  0  0  0  0  0  0  0  0  0  0  0
    2.2950   -0.9750   51.3880 C   0  0  0  0  0  0  0  0  0  0  0  0
    1.3800    0.6370   53.5040 C   0  0  0  0  0  0  0  0  0  0  0  0
    2.8550   -0.9630   52.8220 C   0  0  0  0  0  0  0  0  0  0  0  0
    0.3290    0.8850   46.4100 C   0  0  0  0  0  0  0  0  0  0  0  0
    1.2000   -0.0380   51.1360 N   0  0  0  0  0  0  0  0  0  0  0  0
    2.5730    4.7800   51.2420 N   0  0  0  0  0  0  0  0  0  0  0  0
    3.4140    6.6370   50.2900 O   0  0  0  0  0  0  0  0  0  0  0  0
   -0.7960    0.3140   49.6940 O   0  0  0  0  0  0  0  0  0  0  0  0
    1.1650   -0.6680   48.7090 O   0  0  0  0  0  0  0  0  0  0  0  0
    2.9960    7.9660   52.8620 O   0  0  0  0  0  0  0  0  0  0  0  0
    1.9370   -0.6060   53.8320 O   0  0  0  0  0  0  0  0  0  0  0  0
    0.1880    2.1350   47.0470 O   0  0  0  0  0  0  0  0  0  0  0  0
    0.6200    0.2670   49.6290 S   0  0  0  0  0  0  0  0  0  0  0  0
  1  4  1  0
  1  6  2  0
  2  3  2  0
  2  7  1  0
  3  8  1  0
  4 10  2  0
  5  7  2  0
  5  9  1  0
  6 22  1  0
  7 18  1  0
  8  9  2  0
  8 24  1  0
  9 25  1  0
 10 11  1  0
 10 22  1  0
 11 18  1  0
 11 19  2  0
 12 14  1  0
 12 17  1  0
 13 15  1  0
 13 17  1  0
 14 23  1  0
 15 23  1  0
 16 24  1  0
 17 25  1  0
 20 25  2  0
 21 25  2  0
M  END
>  <washed_aromatic_smiles>  (952) 
COc1ccc(cc1S(=O)(=O)N2CCOCC2)NC(=O)c3ccco3

>  <name>  (952) 
neg161277

$$$$
neg105234
     RDKit          3D

 27 30  0  0  0  0  0  0  0  0999 V2000
    3.0980   -0.7920   52.6670 C   0  0  0  0  0  0  0  0  0  0  0  0
    2.9630    0.1760   53.6520 C   0  0  0  0  0  0  0  0  0  0  0  0
    3.3390   -0.4120   51.3500 C   0  0  0  0  0  0  0  0  0  0  0  0
    2.0500    7.6480   53.1040 C   0  0  0  0  0  0  0  0  0  0  0  0
    0.8130    7.6580   52.4350 C   0  0  0  0  0  0  0  0  0  0  0  0
    2.9380    1.5160   53.2930 C   0  0  0  0  0  0  0  0  0  0  0  0
    3.3450    0.9250   51.0000 C   0  0  0  0  0  0  0  0  0  0  0  0
    2.8890    6.5650   52.9640 C   0  0  0  0  0  0  0  0  0  0  0  0
    0.4970    6.6420   51.5560 C   0  0  0  0  0  0  0  0  0  0  0  0
   -0.1650    0.3690   48.2220 C   0  0  0  0  0  0  0  0  0  0  0  0
   -0.3050    0.4870   49.5760 C   0  0  0  0  0  0  0  0  0  0  0  0
    1.3700    2.2830   48.2170 C   0  0  0  0  0  0  0  0  0  0  0  0
    3.0440    1.9050   51.9470 C   0  0  0  0  0  0  0  0  0  0  0  0
    1.2320    2.4000   49.6130 C   0  0  0  0  0  0  0  0  0  0  0  0
    2.4950    5.4780   52.1540 C   0  0  0  0  0  0  0  0  0  0  0  0
    1.4050    5.6060   51.2940 C   0  0  0  0  0  0  0  0  0  0  0  0
    0.6910    1.2390   47.5660 C   0  0  0  0  0  0  0  0  0  0  0  0
    0.4230    1.4440   50.2570 C   0  0  0  0  0  0  0  0  0  0  0  0
    2.6600    3.2610   51.5440 C   0  0  0  0  0  0  0  0  0  0  0  0
    1.7540    3.4970   50.4420 C   0  0  0  0  0  0  0  0  0  0  0  0
    0.1950    0.2770   52.2710 C   0  0  0  0  0  0  0  0  0  0  0  0
    3.0260    4.2490   52.3190 N   0  0  0  0  0  0  0  0  0  0  0  0
    1.1800    4.6690   50.3180 N   0  0  0  0  0  0  0  0  0  0  0  0
    0.8200    0.9580   46.1790 N   0  0  0  0  0  0  0  0  0  0  0  0
    0.3310    1.6840   45.3460 O   0  0  0  0  0  0  0  0  0  0  0  0
    1.3660   -0.0710   45.8320 O   0  0  0  0  0  0  0  0  0  0  0  0
    0.2410    1.5100   51.5880 O   0  0  0  0  0  0  0  0  0  0  0  0
  1  2  2  0
  1  3  1  0
  2  6  1  0
  3  7  2  0
  4  5  2  0
  4  8  1  0
  5  9  1  0
  6 13  2  0
  7 13  1  0
  8 15  2  0
  9 16  2  0
 10 11  2  0
 10 17  1  0
 11 18  1  0
 12 14  1  0
 12 17  2  0
 13 19  1  0
 14 18  2  0
 14 20  1  0
 15 16  1  0
 15 22  1  0
 16 23  1  0
 17 24  1  0
 18 27  1  0
 19 20  1  0
 19 22  2  0
 20 23  2  0
 21 27  1  0
 24 25  1  0
 24 26  2  0
M  CHG  2  24   1  25  -1
M  END
>  <washed_aromatic_smiles>  (953) 
COc1ccc(cc1c2c(nc3ccccc3n2)c4ccccc4)[N+](=O)[O-]

>  <name>  (953) 
neg105234

$$$$
neg201152
     RDKit          3D

 26 29  0  0  0  0  0  0  0  0999 V2000
   -1.9520    7.8250   58.9720 C   0  0  0  0  0  0  0  0  0  0  0  0
   -2.1770    6.9620   57.9250 C   0  0  0  0  0  0  0  0  0  0  0  0
    2.9430    6.2860   50.3540 C   0  0  0  0  0  0  0  0  0  0  0  0
    2.6170    4.4230   51.8180 C   0  0  0  0  0  0  0  0  0  0  0  0
   -0.8420    8.6030   58.8880 C   0  0  0  0  0  0  0  0  0  0  0  0
   -1.3430    7.1010   56.8670 C   0  0  0  0  0  0  0  0  0  0  0  0
    3.2710    9.7280   56.4620 C   0  0  0  0  0  0  0  0  0  0  0  0
    3.9910    9.8510   55.3070 C   0  0  0  0  0  0  0  0  0  0  0  0
    2.7250    5.4490   49.2630 C   0  0  0  0  0  0  0  0  0  0  0  0
    2.3260    3.6030   50.7410 C   0  0  0  0  0  0  0  0  0  0  0  0
    2.7910    5.8010   51.6530 C   0  0  0  0  0  0  0  0  0  0  0  0
    0.0070    8.7230   57.6920 C   0  0  0  0  0  0  0  0  0  0  0  0
   -0.4830    8.1540   56.5420 C   0  0  0  0  0  0  0  0  0  0  0  0
    1.9680    9.1630   56.4420 C   0  0  0  0  0  0  0  0  0  0  0  0
    1.3830    8.7020   55.2270 C   0  0  0  0  0  0  0  0  0  0  0  0
    2.2450    8.6790   54.0680 C   0  0  0  0  0  0  0  0  0  0  0  0
    3.4590    9.3550   54.0910 C   0  0  0  0  0  0  0  0  0  0  0  0
    2.3080    4.1390   49.4630 C   0  0  0  0  0  0  0  0  0  0  0  0
    2.8440    6.6730   52.8220 C   0  0  0  0  0  0  0  0  0  0  0  0
    5.3730   10.3260   52.7900 C   0  0  0  0  0  0  0  0  0  0  0  0
    1.2810    9.1040   57.5770 N   0  0  0  0  0  0  0  0  0  0  0  0
    0.1000    8.2640   55.2820 N   0  0  0  0  0  0  0  0  0  0  0  0
    2.0120    7.7850   52.9730 N   0  0  0  0  0  0  0  0  0  0  0  0
    3.5930    6.4240   53.7510 O   0  0  0  0  0  0  0  0  0  0  0  0
    4.1730    9.5270   52.9160 O   0  0  0  0  0  0  0  0  0  0  0  0
    1.6490    3.1100   48.0300 Br  0  0  0  0  0  0  0  0  0  0  0  0
  1  2  2  0
  1  5  1  0
  2  6  1  0
  3  9  2  0
  3 11  1  0
  4 10  1  0
  4 11  2  0
  5 12  2  0
  6 13  2  0
  7  8  2  0
  7 14  1  0
  8 17  1  0
  9 18  1  0
 10 18  2  0
 11 19  1  0
 12 13  1  0
 12 21  1  0
 13 22  1  0
 14 15  1  0
 14 21  2  0
 15 16  1  0
 15 22  2  0
 16 17  2  0
 16 23  1  0
 17 25  1  0
 18 26  1  0
 19 23  1  0
 19 24  2  0
 20 25  1  0
M  END
>  <washed_aromatic_smiles>  (954) 
COc1ccc2c(c1NC(=O)c3ccc(cc3)Br)nc4ccccc4n2

>  <name>  (954) 
neg201152

$$$$
neg213374
     RDKit          3D

 26 29  0  0  0  0  0  0  0  0999 V2000
   -1.3350   -0.2360   48.8450 C   0  0  0  0  0  0  0  0  0  0  0  0
   -1.6230    0.1490   50.1790 C   0  0  0  0  0  0  0  0  0  0  0  0
    1.2490    7.5000   53.7080 C   0  0  0  0  0  0  0  0  0  0  0  0
    3.6560    7.5330   53.8190 C   0  0  0  0  0  0  0  0  0  0  0  0
   -0.1760    0.1600   48.2700 C   0  0  0  0  0  0  0  0  0  0  0  0
   -0.7120    0.8180   50.9530 C   0  0  0  0  0  0  0  0  0  0  0  0
    2.9580    3.4170   48.0180 C   0  0  0  0  0  0  0  0  0  0  0  0
    3.4610    4.5690   48.4430 C   0  0  0  0  0  0  0  0  0  0  0  0
    1.2100    8.4360   54.7370 C   0  0  0  0  0  0  0  0  0  0  0  0
    3.6290    8.4720   54.8200 C   0  0  0  0  0  0  0  0  0  0  0  0
    2.4790    6.9730   53.3010 C   0  0  0  0  0  0  0  0  0  0  0  0
    0.6670    1.0210   48.9850 C   0  0  0  0  0  0  0  0  0  0  0  0
    0.4390    1.3460   50.3470 C   0  0  0  0  0  0  0  0  0  0  0  0
    2.1030    2.6910   48.8370 C   0  0  0  0  0  0  0  0  0  0  0  0
    1.8060    3.1340   50.1640 C   0  0  0  0  0  0  0  0  0  0  0  0
    2.2030    4.4720   50.5100 C   0  0  0  0  0  0  0  0  0  0  0  0
    3.0300    5.1480   49.6440 C   0  0  0  0  0  0  0  0  0  0  0  0
    2.4070    8.8730   55.3320 C   0  0  0  0  0  0  0  0  0  0  0  0
    2.6360    5.7690   52.5050 C   0  0  0  0  0  0  0  0  0  0  0  0
    3.5880    7.1650   48.6490 C   0  0  0  0  0  0  0  0  0  0  0  0
    1.5540    1.6460   48.2830 N   0  0  0  0  0  0  0  0  0  0  0  0
    1.1110    2.3270   50.9640 N   0  0  0  0  0  0  0  0  0  0  0  0
    1.7140    5.2150   51.6330 N   0  0  0  0  0  0  0  0  0  0  0  0
    3.6440    5.1180   52.6550 O   0  0  0  0  0  0  0  0  0  0  0  0
    3.3330    6.4470   49.8400 O   0  0  0  0  0  0  0  0  0  0  0  0
    2.4760    9.8370   56.7600 Cl  0  0  0  0  0  0  0  0  0  0  0  0
  1  2  2  0
  1  5  1  0
  2  6  1  0
  3  9  2  0
  3 11  1  0
  4 10  1  0
  4 11  2  0
  5 12  2  0
  6 13  2  0
  7  8  2  0
  7 14  1  0
  8 17  1  0
  9 18  1  0
 10 18  2  0
 11 19  1  0
 12 13  1  0
 12 21  1  0
 13 22  1  0
 14 15  1  0
 14 21  2  0
 15 16  1  0
 15 22  2  0
 16 17  2  0
 16 23  1  0
 17 25  1  0
 18 26  1  0
 19 23  1  0
 19 24  2  0
 20 25  1  0
M  END
>  <washed_aromatic_smiles>  (955) 
COc1ccc2c(c1NC(=O)c3ccc(cc3)Cl)nc4ccccc4n2

>  <name>  (955) 
neg213374

$$$$
neg186361
     RDKit          3D

 26 29  0  0  0  0  0  0  0  0999 V2000
    4.8870   -1.2590   56.1260 C   0  0  0  0  0  0  0  0  0  0  0  0
    0.8860    7.9570   52.8900 C   0  0  0  0  0  0  0  0  0  0  0  0
    2.1910    7.8770   53.4380 C   0  0  0  0  0  0  0  0  0  0  0  0
    5.2290   -0.3360   57.1030 C   0  0  0  0  0  0  0  0  0  0  0  0
    3.9270   -0.9530   55.1440 C   0  0  0  0  0  0  0  0  0  0  0  0
    0.4530    7.0000   52.0090 C   0  0  0  0  0  0  0  0  0  0  0  0
    2.9770    6.7840   53.1770 C   0  0  0  0  0  0  0  0  0  0  0  0
    1.4910    3.1120   49.3790 C   0  0  0  0  0  0  0  0  0  0  0  0
    1.8770    1.7990   49.4790 C   0  0  0  0  0  0  0  0  0  0  0  0
    4.6090    0.8930   57.0920 C   0  0  0  0  0  0  0  0  0  0  0  0
    3.3910    0.3120   55.0320 C   0  0  0  0  0  0  0  0  0  0  0  0
    1.3150    5.9540   51.5930 C   0  0  0  0  0  0  0  0  0  0  0  0
    2.4900    5.7350   52.3490 C   0  0  0  0  0  0  0  0  0  0  0  0
    1.6910    4.0020   50.4710 C   0  0  0  0  0  0  0  0  0  0  0  0
    2.5310    3.5900   51.5450 C   0  0  0  0  0  0  0  0  0  0  0  0
    2.7480    2.1810   51.7200 C   0  0  0  0  0  0  0  0  0  0  0  0
    2.4800    1.3240   50.6740 C   0  0  0  0  0  0  0  0  0  0  0  0
    3.6960    1.1760   56.0790 C   0  0  0  0  0  0  0  0  0  0  0  0
    2.6470    0.7010   53.8210 C   0  0  0  0  0  0  0  0  0  0  0  0
    1.7750   -0.9470   50.5200 C   0  0  0  0  0  0  0  0  0  0  0  0
    1.0250    5.1610   50.5520 N   0  0  0  0  0  0  0  0  0  0  0  0
    3.0290    4.5140   52.3760 N   0  0  0  0  0  0  0  0  0  0  0  0
    3.1980    1.6940   52.9940 N   0  0  0  0  0  0  0  0  0  0  0  0
    1.5880    0.1760   53.4890 O   0  0  0  0  0  0  0  0  0  0  0  0
    2.8080    0.0000   50.7850 O   0  0  0  0  0  0  0  0  0  0  0  0
    2.8910    2.6150   56.1290 Cl  0  0  0  0  0  0  0  0  0  0  0  0
  1  4  2  0
  1  5  1  0
  2  3  2  0
  2  6  1  0
  3  7  1  0
  4 10  1  0
  5 11  2  0
  6 12  2  0
  7 13  2  0
  8  9  2  0
  8 14  1  0
  9 17  1  0
 10 18  2  0
 11 18  1  0
 11 19  1  0
 12 13  1  0
 12 21  1  0
 13 22  1  0
 14 15  1  0
 14 21  2  0
 15 16  1  0
 15 22  2  0
 16 17  2  0
 16 23  1  0
 17 25  1  0
 18 26  1  0
 19 23  1  0
 19 24  2  0
 20 25  1  0
M  END
>  <washed_aromatic_smiles>  (956) 
COc1ccc2c(c1NC(=O)c3ccccc3Cl)nc4ccccc4n2

>  <name>  (956) 
neg186361

$$$$
neg36635
     RDKit          3D

 28 31  0  0  0  0  0  0  0  0999 V2000
    0.1180    0.7770   47.7520 C   0  0  0  0  0  0  0  0  0  0  0  0
    0.8180    1.9740   47.7070 C   0  0  0  0  0  0  0  0  0  0  0  0
    0.3770   -0.1440   48.7600 C   0  0  0  0  0  0  0  0  0  0  0  0
    1.3370    7.9190   53.5060 C   0  0  0  0  0  0  0  0  0  0  0  0
    1.7060    8.4360   54.7430 C   0  0  0  0  0  0  0  0  0  0  0  0
    2.0280    1.3540   49.7040 C   0  0  0  0  0  0  0  0  0  0  0  0
    1.7960    2.2560   48.6650 C   0  0  0  0  0  0  0  0  0  0  0  0
    1.3250    0.1530   49.7370 C   0  0  0  0  0  0  0  0  0  0  0  0
    2.2990    7.2250   52.7710 C   0  0  0  0  0  0  0  0  0  0  0  0
    3.0190    8.2530   55.1890 C   0  0  0  0  0  0  0  0  0  0  0  0
    2.6070    3.4560   48.5620 C   0  0  0  0  0  0  0  0  0  0  0  0
    1.4790    5.3000   51.6760 C   0  0  0  0  0  0  0  0  0  0  0  0
    3.2100    6.5120   50.6360 C   0  0  0  0  0  0  0  0  0  0  0  0
    1.3140    4.5100   50.3770 C   0  0  0  0  0  0  0  0  0  0  0  0
    3.2130    5.6650   49.3680 C   0  0  0  0  0  0  0  0  0  0  0  0
    3.5460   10.1990   56.5330 C   0  0  0  0  0  0  0  0  0  0  0  0
    4.7840    8.1240   56.9100 C   0  0  0  0  0  0  0  0  0  0  0  0
    4.2360   10.7570   57.7970 C   0  0  0  0  0  0  0  0  0  0  0  0
    5.3420    8.7350   58.2000 C   0  0  0  0  0  0  0  0  0  0  0  0
    2.5220   -0.6370   51.7860 C   0  0  0  0  0  0  0  0  0  0  0  0
    3.5360    7.0720   53.2720 N   0  0  0  0  0  0  0  0  0  0  0  0
    3.8890    7.5800   54.4320 N   0  0  0  0  0  0  0  0  0  0  0  0
    2.0180    6.6280   51.5060 N   0  0  0  0  0  0  0  0  0  0  0  0
    3.4970    8.7270   56.4500 N   0  0  0  0  0  0  0  0  0  0  0  0
    2.4960    4.4220   49.5290 N   0  0  0  0  0  0  0  0  0  0  0  0
    3.4120    3.6180   47.6490 O   0  0  0  0  0  0  0  0  0  0  0  0
    5.4830   10.1380   58.0630 O   0  0  0  0  0  0  0  0  0  0  0  0
    1.5790   -0.7900   50.7020 O   0  0  0  0  0  0  0  0  0  0  0  0
  1  2  2  0
  1  3  1  0
  2  7  1  0
  3  8  2  0
  4  5  2  0
  4  9  1  0
  5 10  1  0
  6  7  2  0
  6  8  1  0
  7 11  1  0
  8 28  1  0
  9 21  2  0
  9 23  1  0
 10 22  2  0
 10 24  1  0
 11 25  1  0
 11 26  2  0
 12 14  1  0
 12 23  1  0
 13 15  1  0
 13 23  1  0
 14 25  1  0
 15 25  1  0
 16 18  1  0
 16 24  1  0
 17 19  1  0
 17 24  1  0
 18 27  1  0
 19 27  1  0
 20 28  1  0
 21 22  1  0
M  END
>  <washed_aromatic_smiles>  (957) 
COc1cccc(c1)C(=O)N2CCN(CC2)c3ccc(nn3)N4CCOCC4

>  <name>  (957) 
neg36635

$$$$
neg204656
     RDKit          3D

 34 36  0  0  0  0  0  0  0  0999 V2000
   -3.8760    7.2180   58.7980 C   0  0  0  0  0  0  0  0  0  0  0  0
    1.1100   -0.6820   49.1680 C   0  0  0  0  0  0  0  0  0  0  0  0
   -2.8250    7.3500   57.9180 C   0  0  0  0  0  0  0  0  0  0  0  0
    1.8280   -0.0020   50.1460 C   0  0  0  0  0  0  0  0  0  0  0  0
   -3.6990    7.5060   60.1380 C   0  0  0  0  0  0  0  0  0  0  0  0
   -0.2430   -0.4590   49.0370 C   0  0  0  0  0  0  0  0  0  0  0  0
   -1.4490    8.2070   59.6280 C   0  0  0  0  0  0  0  0  0  0  0  0
   -0.1880    1.0170   50.9480 C   0  0  0  0  0  0  0  0  0  0  0  0
   -1.6150    7.9450   58.2810 C   0  0  0  0  0  0  0  0  0  0  0  0
    1.2030    1.0060   50.8640 C   0  0  0  0  0  0  0  0  0  0  0  0
   -2.4440    7.9360   60.5450 C   0  0  0  0  0  0  0  0  0  0  0  0
   -0.8990    0.2500   50.0360 C   0  0  0  0  0  0  0  0  0  0  0  0
   -0.5610    8.2720   57.3050 C   0  0  0  0  0  0  0  0  0  0  0  0
    2.0000    2.1600   51.2010 C   0  0  0  0  0  0  0  0  0  0  0  0
    2.3460    9.1870   53.5540 C   0  0  0  0  0  0  0  0  0  0  0  0
    4.4350    8.0480   54.0140 C   0  0  0  0  0  0  0  0  0  0  0  0
    1.7230    7.9180   52.9660 C   0  0  0  0  0  0  0  0  0  0  0  0
    3.7950    6.7590   53.4680 C   0  0  0  0  0  0  0  0  0  0  0  0
   -3.0810    8.8680   62.5760 C   0  0  0  0  0  0  0  0  0  0  0  0
   -3.2580   -0.7260   49.4930 C   0  0  0  0  0  0  0  0  0  0  0  0
    2.8020   10.2080   56.7600 C   0  0  0  0  0  0  0  0  0  0  0  0
    2.1340    5.6310   50.5220 C   0  0  0  0  0  0  0  0  0  0  0  0
    3.8060    9.9670   55.5930 C   0  0  0  0  0  0  0  0  0  0  0  0
    2.1740    5.7300   52.0390 C   0  0  0  0  0  0  0  0  0  0  0  0
    1.7820    9.0610   56.8170 C   0  0  0  0  0  0  0  0  0  0  0  0
    2.5960    4.2840   50.0130 C   0  0  0  0  0  0  0  0  0  0  0  0
    3.3900    8.8860   54.6040 N   0  0  0  0  0  0  0  0  0  0  0  0
    2.7520    7.0000   52.4700 N   0  0  0  0  0  0  0  0  0  0  0  0
    0.5440    9.0180   57.6350 N   0  0  0  0  0  0  0  0  0  0  0  0
    1.6970    3.2250   50.3990 N   0  0  0  0  0  0  0  0  0  0  0  0
   -0.5740    7.8630   56.1660 O   0  0  0  0  0  0  0  0  0  0  0  0
    2.9280    2.1900   52.0030 O   0  0  0  0  0  0  0  0  0  0  0  0
   -2.1450    8.1180   61.8460 O   0  0  0  0  0  0  0  0  0  0  0  0
   -2.2580    0.1010   50.1760 O   0  0  0  0  0  0  0  0  0  0  0  0
  1  3  2  0
  1  5  1  0
  2  4  2  0
  2  6  1  0
  3  9  1  0
  4 10  1  0
  5 11  2  0
  6 12  2  0
  7  9  2  0
  7 11  1  0
  8 10  2  0
  8 12  1  0
  9 13  1  0
 10 14  1  0
 11 33  1  0
 12 34  1  0
 13 29  1  0
 13 31  2  0
 14 30  1  0
 14 32  2  0
 15 17  1  0
 15 27  1  0
 16 18  1  0
 16 27  1  0
 17 28  1  0
 18 28  1  0
 19 33  1  0
 20 34  1  0
 21 23  1  0
 21 25  1  0
 22 24  1  0
 22 26  1  0
 23 27  1  0
 24 28  1  0
 25 29  1  0
 26 30  1  0
M  CHG  1  27   1
M  END
>  <washed_aromatic_smiles>  (958) 
COc1cccc(c1)C(=O)NCCCN2CCN(CC2)CCCNC(=O)c3cccc(c3)OC

>  <name>  (958) 
neg204656

$$$$
neg106671
     RDKit          3D

 28 30  0  0  0  0  0  0  0  0999 V2000
    3.5030    5.9390   48.5870 C   0  0  0  0  0  0  0  0  0  0  0  0
    3.4520    4.6050   48.1960 C   0  0  0  0  0  0  0  0  0  0  0  0
    2.2350    8.9000   55.4500 C   0  0  0  0  0  0  0  0  0  0  0  0
    1.1450   -0.7680   53.6870 C   0  0  0  0  0  0  0  0  0  0  0  0
    1.5900    8.0950   54.5120 C   0  0  0  0  0  0  0  0  0  0  0  0
    1.0690   -0.0260   52.5250 C   0  0  0  0  0  0  0  0  0  0  0  0
    3.1890    6.3180   49.8760 C   0  0  0  0  0  0  0  0  0  0  0  0
    2.9730    3.6530   49.0650 C   0  0  0  0  0  0  0  0  0  0  0  0
    3.4140    9.5590   55.1190 C   0  0  0  0  0  0  0  0  0  0  0  0
    2.1300   -0.5260   54.6320 C   0  0  0  0  0  0  0  0  0  0  0  0
    3.2640    8.6490   52.8820 C   0  0  0  0  0  0  0  0  0  0  0  0
    3.0040    1.2140   53.2330 C   0  0  0  0  0  0  0  0  0  0  0  0
    2.1550    7.8850   53.2540 C   0  0  0  0  0  0  0  0  0  0  0  0
    2.0080    0.9640   52.2860 C   0  0  0  0  0  0  0  0  0  0  0  0
    2.7480    5.3670   50.7740 C   0  0  0  0  0  0  0  0  0  0  0  0
    2.6320    4.0320   50.3590 C   0  0  0  0  0  0  0  0  0  0  0  0
    3.8970    9.4650   53.8120 C   0  0  0  0  0  0  0  0  0  0  0  0
    3.0190    0.5160   54.4330 C   0  0  0  0  0  0  0  0  0  0  0  0
    1.6430    6.8460   52.3720 C   0  0  0  0  0  0  0  0  0  0  0  0
    1.9000    1.7740   51.0980 C   0  0  0  0  0  0  0  0  0  0  0  0
    5.4310   11.4120   54.0000 C   0  0  0  0  0  0  0  0  0  0  0  0
    4.4720    0.1350   56.4960 C   0  0  0  0  0  0  0  0  0  0  0  0
    2.5120    5.8060   52.0980 N   0  0  0  0  0  0  0  0  0  0  0  0
    2.2840    3.0740   51.2960 N   0  0  0  0  0  0  0  0  0  0  0  0
    0.5140    6.8280   51.8970 O   0  0  0  0  0  0  0  0  0  0  0  0
    1.4540    1.3740   50.0270 O   0  0  0  0  0  0  0  0  0  0  0  0
    4.9990   10.1780   53.3900 O   0  0  0  0  0  0  0  0  0  0  0  0
    3.8880    0.9160   55.4260 O   0  0  0  0  0  0  0  0  0  0  0  0
  1  2  2  0
  1  7  1  0
  2  8  1  0
  3  5  2  0
  3  9  1  0
  4  6  2  0
  4 10  1  0
  5 13  1  0
  6 14  1  0
  7 15  2  0
  8 16  2  0
  9 17  2  0
 10 18  2  0
 11 13  2  0
 11 17  1  0
 12 14  2  0
 12 18  1  0
 13 19  1  0
 14 20  1  0
 15 16  1  0
 15 23  1  0
 16 24  1  0
 17 27  1  0
 18 28  1  0
 19 23  1  0
 19 25  2  0
 20 24  1  0
 20 26  2  0
 21 27  1  0
 22 28  1  0
M  END
>  <washed_aromatic_smiles>  (959) 
COc1cccc(c1)C(=O)Nc2ccccc2NC(=O)c3cccc(c3)OC

>  <name>  (959) 
neg106671

$$$$
neg84960
     RDKit          3D

 25 27  0  0  0  0  0  0  0  0999 V2000
    0.0150    0.9160   47.5220 C   0  0  0  0  0  0  0  0  0  0  0  0
    4.0000    9.4180   56.1260 C   0  0  0  0  0  0  0  0  0  0  0  0
    0.6780    2.1360   47.6390 C   0  0  0  0  0  0  0  0  0  0  0  0
    3.7700    9.2810   54.7590 C   0  0  0  0  0  0  0  0  0  0  0  0
    0.2840   -0.1190   48.4110 C   0  0  0  0  0  0  0  0  0  0  0  0
    2.9420    9.3190   57.0250 C   0  0  0  0  0  0  0  0  0  0  0  0
    1.9910    1.2380   49.4400 C   0  0  0  0  0  0  0  0  0  0  0  0
    1.4540    8.8140   55.2030 C   0  0  0  0  0  0  0  0  0  0  0  0
    1.6510    2.3110   48.6200 C   0  0  0  0  0  0  0  0  0  0  0  0
    2.4800    9.0190   54.3060 C   0  0  0  0  0  0  0  0  0  0  0  0
    1.2730    0.0490   49.3670 C   0  0  0  0  0  0  0  0  0  0  0  0
    1.6570    9.0240   56.5580 C   0  0  0  0  0  0  0  0  0  0  0  0
    1.7220    4.0630   50.3480 C   0  0  0  0  0  0  0  0  0  0  0  0
    2.9080    6.1460   50.6000 C   0  0  0  0  0  0  0  0  0  0  0  0
    0.5930    5.8060   51.6420 C   0  0  0  0  0  0  0  0  0  0  0  0
    3.0420    7.2550   51.6420 C   0  0  0  0  0  0  0  0  0  0  0  0
    0.9410    6.8220   52.7250 C   0  0  0  0  0  0  0  0  0  0  0  0
    2.3470   -0.8440   51.4250 C   0  0  0  0  0  0  0  0  0  0  0  0
    2.2200    3.6810   48.9620 C   0  0  0  0  0  0  0  0  0  0  0  0
    2.0870    9.1040   52.8690 C   0  0  0  0  0  0  0  0  0  0  0  0
    1.7450    5.3060   50.8310 N   0  0  0  0  0  0  0  0  0  0  0  0
    1.8190    7.8430   52.1590 N   0  0  0  0  0  0  0  0  0  0  0  0
    1.2470    3.1980   51.0540 O   0  0  0  0  0  0  0  0  0  0  0  0
    1.5410   -0.9890   50.2290 O   0  0  0  0  0  0  0  0  0  0  0  0
    0.2170    8.8880   57.5480 Cl  0  0  0  0  0  0  0  0  0  0  0  0
  1  3  2  0
  1  5  1  0
  2  4  2  0
  2  6  1  0
  3  9  1  0
  4 10  1  0
  5 11  2  0
  6 12  2  0
  7  9  2  0
  7 11  1  0
  8 10  2  0
  8 12  1  0
  9 19  1  0
 10 20  1  0
 11 24  1  0
 12 25  1  0
 13 19  1  0
 13 21  1  0
 13 23  2  0
 14 16  1  0
 14 21  1  0
 15 17  1  0
 15 21  1  0
 16 22  1  0
 17 22  1  0
 18 24  1  0
 20 22  1  0
M  CHG  1  22   1
M  END
>  <washed_aromatic_smiles>  (960) 
COc1cccc(c1)CC(=O)N2CCN(CC2)Cc3cccc(c3)Cl

>  <name>  (960) 
neg84960

$$$$
neg15994
     RDKit          3D

 27 29  0  0  0  0  0  0  0  0999 V2000
    4.7490    8.9440   55.7880 C   0  0  0  0  0  0  0  0  0  0  0  0
    3.1070    4.4030   48.4000 C   0  0  0  0  0  0  0  0  0  0  0  0
    3.8390    8.0690   55.2000 C   0  0  0  0  0  0  0  0  0  0  0  0
    3.1290    5.1770   49.5490 C   0  0  0  0  0  0  0  0  0  0  0  0
    5.0420   10.1590   55.1790 C   0  0  0  0  0  0  0  0  0  0  0  0
    2.3070    3.2650   48.3180 C   0  0  0  0  0  0  0  0  0  0  0  0
    3.5220    9.6010   53.3810 C   0  0  0  0  0  0  0  0  0  0  0  0
    1.5710    3.6360   50.5340 C   0  0  0  0  0  0  0  0  0  0  0  0
    3.2000    8.4020   54.0060 C   0  0  0  0  0  0  0  0  0  0  0  0
    2.3040    4.8140   50.6160 C   0  0  0  0  0  0  0  0  0  0  0  0
    4.4450   10.4700   53.9590 C   0  0  0  0  0  0  0  0  0  0  0  0
    1.6200    2.7990   49.4340 C   0  0  0  0  0  0  0  0  0  0  0  0
    2.5000    6.8740   52.0630 C   0  0  0  0  0  0  0  0  0  0  0  0
    2.1550   -0.5840   53.6430 C   0  0  0  0  0  0  0  0  0  0  0  0
    2.9590   -0.9370   52.3980 C   0  0  0  0  0  0  0  0  0  0  0  0
    1.6270    0.8010   53.4280 C   0  0  0  0  0  0  0  0  0  0  0  0
    2.2760   -0.7340   51.0430 C   0  0  0  0  0  0  0  0  0  0  0  0
    0.7780    0.7640   52.1660 C   0  0  0  0  0  0  0  0  0  0  0  0
    5.2880   12.8150   53.9320 C   0  0  0  0  0  0  0  0  0  0  0  0
    2.1350    7.5040   53.3940 C   0  0  0  0  0  0  0  0  0  0  0  0
    1.5950    0.5460   50.9680 N   0  0  0  0  0  0  0  0  0  0  0  0
    2.1540    5.5600   51.8300 N   0  0  0  0  0  0  0  0  0  0  0  0
    3.0210    7.5210   51.1950 O   0  0  0  0  0  0  0  0  0  0  0  0
   -0.4450    1.1330   49.7820 O   0  0  0  0  0  0  0  0  0  0  0  0
    1.3580    0.3690   48.4310 O   0  0  0  0  0  0  0  0  0  0  0  0
    4.7110   11.6540   53.3000 O   0  0  0  0  0  0  0  0  0  0  0  0
    0.9410    1.1120   49.5630 S   0  0  0  0  0  0  0  0  0  0  0  0
  1  3  2  0
  1  5  1  0
  2  4  2  0
  2  6  1  0
  3  9  1  0
  4 10  1  0
  5 11  2  0
  6 12  2  0
  7  9  2  0
  7 11  1  0
  8 10  2  0
  8 12  1  0
  9 20  1  0
 10 22  1  0
 11 26  1  0
 12 27  1  0
 13 20  1  0
 13 22  1  0
 13 23  2  0
 14 15  1  0
 14 16  1  0
 15 17  1  0
 16 18  1  0
 17 21  1  0
 18 21  1  0
 19 26  1  0
 21 27  1  0
 24 27  2  0
 25 27  2  0
M  END
>  <washed_aromatic_smiles>  (961) 
COc1cccc(c1)CC(=O)Nc2cccc(c2)S(=O)(=O)N3CCCCC3

>  <name>  (961) 
neg15994

$$$$
neg205355
     RDKit          3D

 29 32  0  0  0  0  0  0  0  0999 V2000
    5.3610   12.7850   55.9390 C   0  0  0  0  0  0  0  0  0  0  0  0
    5.2820   12.7660   54.5490 C   0  0  0  0  0  0  0  0  0  0  0  0
    5.0190   11.6540   56.6710 C   0  0  0  0  0  0  0  0  0  0  0  0
   -0.2740    0.6380   47.5630 C   0  0  0  0  0  0  0  0  0  0  0  0
    4.8510   11.6200   53.8900 C   0  0  0  0  0  0  0  0  0  0  0  0
    4.5800   10.5110   56.0160 C   0  0  0  0  0  0  0  0  0  0  0  0
    2.7550    9.3800   53.1760 C   0  0  0  0  0  0  0  0  0  0  0  0
    4.5310    8.0760   54.1150 C   0  0  0  0  0  0  0  0  0  0  0  0
    2.1450    8.2390   52.6900 C   0  0  0  0  0  0  0  0  0  0  0  0
    3.9860    6.9670   53.4880 C   0  0  0  0  0  0  0  0  0  0  0  0
    0.4550    1.7810   47.2940 C   0  0  0  0  0  0  0  0  0  0  0  0
    0.0780   -0.1870   48.6170 C   0  0  0  0  0  0  0  0  0  0  0  0
    1.8390    1.3490   49.2230 C   0  0  0  0  0  0  0  0  0  0  0  0
    4.4720   10.4870   54.6200 C   0  0  0  0  0  0  0  0  0  0  0  0
    3.9140    9.3140   53.9640 C   0  0  0  0  0  0  0  0  0  0  0  0
    2.8010    7.0230   52.8090 C   0  0  0  0  0  0  0  0  0  0  0  0
    1.5290    2.1200   48.1060 C   0  0  0  0  0  0  0  0  0  0  0  0
    1.1200    0.1790   49.4610 C   0  0  0  0  0  0  0  0  0  0  0  0
    2.4630    5.8440   52.0610 C   0  0  0  0  0  0  0  0  0  0  0  0
    3.2970    6.2680   49.9120 C   0  0  0  0  0  0  0  0  0  0  0  0
    0.8880    5.4400   50.3950 C   0  0  0  0  0  0  0  0  0  0  0  0
    3.2760    5.4230   48.6510 C   0  0  0  0  0  0  0  0  0  0  0  0
    1.0230    4.7620   49.0520 C   0  0  0  0  0  0  0  0  0  0  0  0
    2.4830   -0.4400   51.4730 C   0  0  0  0  0  0  0  0  0  0  0  0
    2.3770    3.3090   47.7540 C   0  0  0  0  0  0  0  0  0  0  0  0
    2.1180    6.0860   50.8020 N   0  0  0  0  0  0  0  0  0  0  0  0
    2.3760    4.2790   48.8120 N   0  0  0  0  0  0  0  0  0  0  0  0
    2.6970    4.6760   52.3650 O   0  0  0  0  0  0  0  0  0  0  0  0
    1.4370   -0.6620   50.5000 O   0  0  0  0  0  0  0  0  0  0  0  0
  1  2  2  0
  1  3  1  0
  2  5  1  0
  3  6  2  0
  4 11  2  0
  4 12  1  0
  5 14  2  0
  6 14  1  0
  7  9  2  0
  7 15  1  0
  8 10  1  0
  8 15  2  0
  9 16  1  0
 10 16  2  0
 11 17  1  0
 12 18  2  0
 13 17  2  0
 13 18  1  0
 14 15  1  0
 16 19  1  0
 17 25  1  0
 18 29  1  0
 19 26  1  0
 19 28  2  0
 20 22  1  0
 20 26  1  0
 21 23  1  0
 21 26  1  0
 22 27  1  0
 23 27  1  0
 24 29  1  0
 25 27  1  0
M  CHG  1  27   1
M  END
>  <washed_aromatic_smiles>  (962) 
COc1cccc(c1)CN2CCN(CC2)C(=O)c3ccc(cc3)c4ccccc4

>  <name>  (962) 
neg205355

$$$$
neg13925
     RDKit          3D

 27 29  0  0  0  0  0  0  0  0999 V2000
    4.2860    8.1400   55.1050 C   0  0  0  0  0  0  0  0  0  0  0  0
    2.4060    3.9080   49.8960 C   0  0  0  0  0  0  0  0  0  0  0  0
    2.9120    4.1270   52.2210 C   0  0  0  0  0  0  0  0  0  0  0  0
    3.1800    7.5950   54.4530 C   0  0  0  0  0  0  0  0  0  0  0  0
    4.7810    9.3810   54.7270 C   0  0  0  0  0  0  0  0  0  0  0  0
    2.6050    2.5250   50.0040 C   0  0  0  0  0  0  0  0  0  0  0  0
    3.0110    2.7590   52.3510 C   0  0  0  0  0  0  0  0  0  0  0  0
    3.0100    9.5500   53.0880 C   0  0  0  0  0  0  0  0  0  0  0  0
    2.5380    4.7160   51.0320 C   0  0  0  0  0  0  0  0  0  0  0  0
    2.5270    8.3010   53.4460 C   0  0  0  0  0  0  0  0  0  0  0  0
    4.1400   10.0810   53.7070 C   0  0  0  0  0  0  0  0  0  0  0  0
    2.8910    1.9400   51.2470 C   0  0  0  0  0  0  0  0  0  0  0  0
    2.3180    6.1440   51.1290 C   0  0  0  0  0  0  0  0  0  0  0  0
    1.0280   -0.6290   49.9340 C   0  0  0  0  0  0  0  0  0  0  0  0
    0.5040    0.2130   52.1860 C   0  0  0  0  0  0  0  0  0  0  0  0
   -0.0100    0.3430   49.3680 C   0  0  0  0  0  0  0  0  0  0  0  0
   -0.3390    1.2450   51.4700 C   0  0  0  0  0  0  0  0  0  0  0  0
    5.3440   12.2200   54.1260 C   0  0  0  0  0  0  0  0  0  0  0  0
    1.2670    7.7850   52.7710 C   0  0  0  0  0  0  0  0  0  0  0  0
    1.5260   -0.3550   51.3010 N   0  0  0  0  0  0  0  0  0  0  0  0
    1.3780    6.5040   52.0760 N   0  0  0  0  0  0  0  0  0  0  0  0
    3.0020    6.9660   50.5430 O   0  0  0  0  0  0  0  0  0  0  0  0
    3.9770   -0.3840   50.6580 O   0  0  0  0  0  0  0  0  0  0  0  0
    3.3490   -0.0010   52.9500 O   0  0  0  0  0  0  0  0  0  0  0  0
   -0.9690    0.6710   50.3480 O   0  0  0  0  0  0  0  0  0  0  0  0
    4.5690   11.3290   53.2990 O   0  0  0  0  0  0  0  0  0  0  0  0
    3.0540    0.1840   51.5700 S   0  0  0  0  0  0  0  0  0  0  0  0
  1  4  2  0
  1  5  1  0
  2  6  2  0
  2  9  1  0
  3  7  1  0
  3  9  2  0
  4 10  1  0
  5 11  2  0
  6 12  1  0
  7 12  2  0
  8 10  2  0
  8 11  1  0
  9 13  1  0
 10 19  1  0
 11 26  1  0
 12 27  1  0
 13 21  1  0
 13 22  2  0
 14 16  1  0
 14 20  1  0
 15 17  1  0
 15 20  1  0
 16 25  1  0
 17 25  1  0
 18 26  1  0
 19 21  1  0
 20 27  1  0
 23 27  2  0
 24 27  2  0
M  END
>  <washed_aromatic_smiles>  (963) 
COc1cccc(c1)CNC(=O)c2ccc(cc2)S(=O)(=O)N3CCOCC3

>  <name>  (963) 
neg13925

$$$$
neg34992
     RDKit          3D

 27 29  0  0  0  0  0  0  0  0999 V2000
   -0.2150    7.1050   52.3340 C   0  0  0  0  0  0  0  0  0  0  0  0
    0.1930    8.0920   53.2260 C   0  0  0  0  0  0  0  0  0  0  0  0
    0.4450    1.1920   47.9360 C   0  0  0  0  0  0  0  0  0  0  0  0
    0.6990    6.3700   51.6240 C   0  0  0  0  0  0  0  0  0  0  0  0
    1.0770    2.4240   48.0900 C   0  0  0  0  0  0  0  0  0  0  0  0
    0.6510    0.1830   48.8680 C   0  0  0  0  0  0  0  0  0  0  0  0
    1.5300    8.2500   53.4940 C   0  0  0  0  0  0  0  0  0  0  0  0
    2.1430    1.6440   50.1060 C   0  0  0  0  0  0  0  0  0  0  0  0
    2.0590    6.5430   51.8260 C   0  0  0  0  0  0  0  0  0  0  0  0
    1.9270    2.6560   49.1720 C   0  0  0  0  0  0  0  0  0  0  0  0
    1.5010    0.4130   49.9480 C   0  0  0  0  0  0  0  0  0  0  0  0
    2.4560    7.3960   52.8920 C   0  0  0  0  0  0  0  0  0  0  0  0
    2.8960    5.8530   50.8570 C   0  0  0  0  0  0  0  0  0  0  0  0
    4.7230    9.9860   53.9440 C   0  0  0  0  0  0  0  0  0  0  0  0
    5.3110   12.6760   56.3780 C   0  0  0  0  0  0  0  0  0  0  0  0
    4.7420   13.3990   55.1620 C   0  0  0  0  0  0  0  0  0  0  0  0
    4.8810   11.2360   56.1070 C   0  0  0  0  0  0  0  0  0  0  0  0
    5.0490   12.4160   54.0410 C   0  0  0  0  0  0  0  0  0  0  0  0
    2.5190   -0.5530   52.0160 C   0  0  0  0  0  0  0  0  0  0  0  0
    2.6200    3.9970   49.3020 C   0  0  0  0  0  0  0  0  0  0  0  0
    4.3860    8.7150   54.7000 C   0  0  0  0  0  0  0  0  0  0  0  0
    4.9090   11.1090   54.6570 N   0  0  0  0  0  0  0  0  0  0  0  0
    2.6620    4.5120   50.6690 N   0  0  0  0  0  0  0  0  0  0  0  0
    3.6250    6.4140   50.0470 O   0  0  0  0  0  0  0  0  0  0  0  0
    4.8370    9.9990   52.7220 O   0  0  0  0  0  0  0  0  0  0  0  0
    1.7020   -0.6260   50.8280 O   0  0  0  0  0  0  0  0  0  0  0  0
    3.9990    7.2730   53.6480 S   0  0  0  0  0  0  0  0  0  0  0  0
  1  2  2  0
  1  4  1  0
  2  7  1  0
  3  5  2  0
  3  6  1  0
  4  9  2  0
  5 10  1  0
  6 11  2  0
  7 12  2  0
  8 10  2  0
  8 11  1  0
  9 12  1  0
  9 13  1  0
 10 20  1  0
 11 26  1  0
 12 27  1  0
 13 23  1  0
 13 24  2  0
 14 21  1  0
 14 22  1  0
 14 25  2  0
 15 16  1  0
 15 17  1  0
 16 18  1  0
 17 22  1  0
 18 22  1  0
 19 26  1  0
 20 23  1  0
 21 27  1  0
M  END
>  <washed_aromatic_smiles>  (964) 
COc1cccc(c1)CNC(=O)c2ccccc2SCC(=O)N3CCCC3

>  <name>  (964) 
neg34992

$$$$
neg180270
     RDKit          3D

 27 29  0  0  0  0  0  0  0  0999 V2000
    2.2120    9.4080   57.2110 C   0  0  0  0  0  0  0  0  0  0  0  0
    2.8510    9.0260   56.0670 C   0  0  0  0  0  0  0  0  0  0  0  0
    0.8540    9.1090   57.3810 C   0  0  0  0  0  0  0  0  0  0  0  0
    2.6850    4.7050   50.2760 C   0  0  0  0  0  0  0  0  0  0  0  0
    0.7210    4.9720   51.5940 C   0  0  0  0  0  0  0  0  0  0  0  0
    3.0440    6.0100   50.5790 C   0  0  0  0  0  0  0  0  0  0  0  0
    1.0610    6.2730   51.8840 C   0  0  0  0  0  0  0  0  0  0  0  0
    0.7170    8.3320   55.1220 C   0  0  0  0  0  0  0  0  0  0  0  0
    2.1230    8.3450   55.1200 C   0  0  0  0  0  0  0  0  0  0  0  0
    0.1120    8.5790   56.3580 C   0  0  0  0  0  0  0  0  0  0  0  0
    1.5480    4.1400   50.8430 C   0  0  0  0  0  0  0  0  0  0  0  0
    2.2770    6.7690   51.4630 C   0  0  0  0  0  0  0  0  0  0  0  0
    3.0650   -0.0910   52.7850 C   0  0  0  0  0  0  0  0  0  0  0  0
    3.9170   -0.1720   51.5370 C   0  0  0  0  0  0  0  0  0  0  0  0
    2.5730    1.3370   52.7150 C   0  0  0  0  0  0  0  0  0  0  0  0
    3.1520    0.6300   50.5590 C   0  0  0  0  0  0  0  0  0  0  0  0
   -1.6630    7.7210   58.0370 C   0  0  0  0  0  0  0  0  0  0  0  0
    2.9380    7.3120   54.4210 C   0  0  0  0  0  0  0  0  0  0  0  0
    2.5980    1.7050   51.2840 N   0  0  0  0  0  0  0  0  0  0  0  0
    3.7150    7.8860   53.4200 N   0  0  0  0  0  0  0  0  0  0  0  0
    0.1590    1.8590   51.3070 O   0  0  0  0  0  0  0  0  0  0  0  0
    1.3010    2.1410   49.1830 O   0  0  0  0  0  0  0  0  0  0  0  0
    3.7150    8.8710   51.1830 O   0  0  0  0  0  0  0  0  0  0  0  0
    1.7340    9.1210   52.5240 O   0  0  0  0  0  0  0  0  0  0  0  0
   -0.9500    7.8150   56.7730 O   0  0  0  0  0  0  0  0  0  0  0  0
    1.2890    2.3650   50.5930 S   0  0  0  0  0  0  0  0  0  0  0  0
    2.8480    8.3230   52.1270 S   0  0  0  0  0  0  0  0  0  0  0  0
  1  2  2  0
  1  3  1  0
  2  9  1  0
  3 10  2  0
  4  6  2  0
  4 11  1  0
  5  7  1  0
  5 11  2  0
  6 12  1  0
  7 12  2  0
  8  9  2  0
  8 10  1  0
  9 18  1  0
 10 25  1  0
 11 26  1  0
 12 27  1  0
 13 14  1  0
 13 15  1  0
 14 16  1  0
 15 19  1  0
 16 19  1  0
 17 25  1  0
 18 20  1  0
 19 26  1  0
 20 27  1  0
 21 26  2  0
 22 26  2  0
 23 27  2  0
 24 27  2  0
M  END
>  <washed_aromatic_smiles>  (965) 
COc1cccc(c1)CNS(=O)(=O)c2ccc(cc2)S(=O)(=O)N3CCCC3

>  <name>  (965) 
neg180270

$$$$
neg104641
     RDKit          3D

 25 27  0  0  0  0  0  0  0  0999 V2000
    4.2900   11.2650   52.9490 C   0  0  0  0  0  0  0  0  0  0  0  0
    5.6510   11.2990   53.1800 C   0  0  0  0  0  0  0  0  0  0  0  0
    1.0750    2.4030   47.9700 C   0  0  0  0  0  0  0  0  0  0  0  0
    1.3890    3.6900   48.3910 C   0  0  0  0  0  0  0  0  0  0  0  0
    3.5470   10.1090   53.2070 C   0  0  0  0  0  0  0  0  0  0  0  0
    6.2460   10.2200   53.8000 C   0  0  0  0  0  0  0  0  0  0  0  0
    1.3720    1.3100   48.7790 C   0  0  0  0  0  0  0  0  0  0  0  0
    2.3440    2.7970   50.4370 C   0  0  0  0  0  0  0  0  0  0  0  0
    1.9800    3.8890   49.6420 C   0  0  0  0  0  0  0  0  0  0  0  0
    4.1380    9.0520   53.8930 C   0  0  0  0  0  0  0  0  0  0  0  0
    2.0230    1.5120   49.9970 C   0  0  0  0  0  0  0  0  0  0  0  0
    5.4680    9.1810   54.2810 C   0  0  0  0  0  0  0  0  0  0  0  0
    2.1890    7.5580   53.7450 C   0  0  0  0  0  0  0  0  0  0  0  0
    3.2620    5.7260   50.7410 C   0  0  0  0  0  0  0  0  0  0  0  0
    0.8320    5.5210   50.8680 C   0  0  0  0  0  0  0  0  0  0  0  0
    3.2140    5.7210   52.2790 C   0  0  0  0  0  0  0  0  0  0  0  0
    0.8890    6.5680   51.9820 C   0  0  0  0  0  0  0  0  0  0  0  0
    2.9900    0.4160   52.0260 C   0  0  0  0  0  0  0  0  0  0  0  0
    5.4990    8.4350   56.5660 C   0  0  0  0  0  0  0  0  0  0  0  0
    2.0490    5.2080   50.1200 N   0  0  0  0  0  0  0  0  0  0  0  0
    2.0870    6.5210   52.8120 N   0  0  0  0  0  0  0  0  0  0  0  0
    3.4810    7.8290   54.1690 N   0  0  0  0  0  0  0  0  0  0  0  0
    2.3190    0.3900   50.7470 O   0  0  0  0  0  0  0  0  0  0  0  0
    5.9970    8.3430   55.2040 O   0  0  0  0  0  0  0  0  0  0  0  0
    0.8600    8.4050   54.3360 S   0  0  0  0  0  0  0  0  0  0  0  0
  1  2  2  0
  1  5  1  0
  2  6  1  0
  3  4  2  0
  3  7  1  0
  4  9  1  0
  5 10  2  0
  6 12  2  0
  7 11  2  0
  8  9  2  0
  8 11  1  0
  9 20  1  0
 10 12  1  0
 10 22  1  0
 11 23  1  0
 12 24  1  0
 13 21  1  0
 13 22  1  0
 13 25  2  0
 14 16  1  0
 14 20  1  0
 15 17  1  0
 15 20  1  0
 16 21  1  0
 17 21  1  0
 18 23  1  0
 19 24  1  0
M  END
>  <washed_aromatic_smiles>  (966) 
COc1cccc(c1)N2CCN(CC2)C(=S)Nc3ccccc3OC

>  <name>  (966) 
neg104641

$$$$
neg202295
     RDKit          3D

 25 27  0  0  0  0  0  0  0  0999 V2000
    2.7750    4.2400   48.9670 C   0  0  0  0  0  0  0  0  0  0  0  0
   -0.1700    8.7740   52.2280 C   0  0  0  0  0  0  0  0  0  0  0  0
    3.2720    5.5070   48.6870 C   0  0  0  0  0  0  0  0  0  0  0  0
    2.3160    3.9530   50.2460 C   0  0  0  0  0  0  0  0  0  0  0  0
    0.7740    9.4030   52.9580 C   0  0  0  0  0  0  0  0  0  0  0  0
   -0.3070    7.3940   52.2690 C   0  0  0  0  0  0  0  0  0  0  0  0
    6.9260   10.5140   52.9990 C   0  0  0  0  0  0  0  0  0  0  0  0
    6.3850    9.2990   53.3820 C   0  0  0  0  0  0  0  0  0  0  0  0
    3.3110    6.4880   49.6660 C   0  0  0  0  0  0  0  0  0  0  0  0
    2.3680    4.9280   51.2350 C   0  0  0  0  0  0  0  0  0  0  0  0
    1.4140    8.7440   53.9750 C   0  0  0  0  0  0  0  0  0  0  0  0
    0.4840    6.6800   53.1100 C   0  0  0  0  0  0  0  0  0  0  0  0
    6.1700   11.6650   53.0030 C   0  0  0  0  0  0  0  0  0  0  0  0
    4.2180   10.3340   53.4180 C   0  0  0  0  0  0  0  0  0  0  0  0
    5.0160    9.2020   53.5700 C   0  0  0  0  0  0  0  0  0  0  0  0
    2.8730    6.2040   50.9450 C   0  0  0  0  0  0  0  0  0  0  0  0
    1.3560    7.3770   53.9220 C   0  0  0  0  0  0  0  0  0  0  0  0
    4.8280   11.5710   53.2760 C   0  0  0  0  0  0  0  0  0  0  0  0
    4.4880   13.3250   54.8050 C   0  0  0  0  0  0  0  0  0  0  0  0
    4.5390    7.9860   54.0670 N   0  0  0  0  0  0  0  0  0  0  0  0
    4.2170    5.5480   53.1800 O   0  0  0  0  0  0  0  0  0  0  0  0
    4.1710   12.7350   53.5100 O   0  0  0  0  0  0  0  0  0  0  0  0
    3.0160    7.2350   51.9220 O   0  0  0  0  0  0  0  0  0  0  0  0
    2.4270    6.7830   54.3680 O   0  0  0  0  0  0  0  0  0  0  0  0
    3.5560    6.8370   53.3280 P   0  0  0  0  0  0  0  0  0  0  0  0
  1  3  2  0
  1  4  1  0
  2  5  2  0
  2  6  1  0
  3  9  1  0
  4 10  2  0
  5 11  1  0
  6 12  2  0
  7  8  2  0
  7 13  1  0
  8 15  1  0
  9 16  2  0
 10 16  1  0
 11 17  2  0
 12 17  1  0
 13 18  2  0
 14 15  2  0
 14 18  1  0
 15 20  1  0
 16 23  1  0
 17 24  1  0
 18 22  1  0
 19 22  1  0
 20 25  1  0
 21 25  2  0
 23 25  1  0
 24 25  1  0
M  END
>  <washed_aromatic_smiles>  (967) 
COc1cccc(c1)NP(=O)(Oc2ccccc2)Oc3ccccc3

>  <name>  (967) 
neg202295

$$$$
neg197044
     RDKit          3D

 27 29  0  0  0  0  0  0  0  0999 V2000
    3.1000    4.2690   48.4490 C   0  0  0  0  0  0  0  0  0  0  0  0
    2.9820   -1.4430   53.6040 C   0  0  0  0  0  0  0  0  0  0  0  0
    3.3910    5.4070   49.1790 C   0  0  0  0  0  0  0  0  0  0  0  0
    2.2100    3.3550   48.9440 C   0  0  0  0  0  0  0  0  0  0  0  0
    3.3010   -0.6690   54.6860 C   0  0  0  0  0  0  0  0  0  0  0  0
    2.4270   -0.9240   52.4590 C   0  0  0  0  0  0  0  0  0  0  0  0
    1.8060    4.7740   50.8750 C   0  0  0  0  0  0  0  0  0  0  0  0
    2.6750    1.2710   53.3980 C   0  0  0  0  0  0  0  0  0  0  0  0
    2.6970    5.7130   50.3760 C   0  0  0  0  0  0  0  0  0  0  0  0
    1.7070    3.5010   50.2630 C   0  0  0  0  0  0  0  0  0  0  0  0
    3.1740    0.6850   54.5610 C   0  0  0  0  0  0  0  0  0  0  0  0
    2.2800    0.4430   52.3430 C   0  0  0  0  0  0  0  0  0  0  0  0
    2.9320    7.0600   50.9160 C   0  0  0  0  0  0  0  0  0  0  0  0
    3.9440    7.8990   55.2740 C   0  0  0  0  0  0  0  0  0  0  0  0
    4.5840    9.0600   54.5420 C   0  0  0  0  0  0  0  0  0  0  0  0
    3.5180    6.8350   54.2600 C   0  0  0  0  0  0  0  0  0  0  0  0
    3.4740    9.6890   53.7270 C   0  0  0  0  0  0  0  0  0  0  0  0
    2.2730    7.0440   53.4050 C   0  0  0  0  0  0  0  0  0  0  0  0
    3.1070    9.0850   52.3760 C   0  0  0  0  0  0  0  0  0  0  0  0
    2.8450    2.1580   56.3150 C   0  0  0  0  0  0  0  0  0  0  0  0
    2.6630    7.6760   52.1760 N   0  0  0  0  0  0  0  0  0  0  0  0
    1.2630    2.4780   50.9700 N   0  0  0  0  0  0  0  0  0  0  0  0
    3.4630    7.8080   50.1170 O   0  0  0  0  0  0  0  0  0  0  0  0
    0.8200    0.1550   50.1950 O   0  0  0  0  0  0  0  0  0  0  0  0
    3.0880    1.0600   50.0420 O   0  0  0  0  0  0  0  0  0  0  0  0
    3.6880    1.3450   55.5970 O   0  0  0  0  0  0  0  0  0  0  0  0
    1.8420    1.0090   50.7340 S   0  0  2  0  0  0  0  0  0  0  0  0
  1  3  2  0
  1  4  1  0
  2  5  2  0
  2  6  1  0
  3  9  1  0
  4 10  2  0
  5 11  1  0
  6 12  2  0
  7  9  2  0
  7 10  1  0
  8 11  2  0
  8 12  1  0
  9 13  1  0
 10 22  1  0
 11 26  1  0
 12 27  1  0
 13 21  1  0
 13 23  2  0
 14 15  1  0
 14 16  1  0
 15 17  1  0
 16 18  1  0
 17 19  1  0
 18 21  1  0
 19 21  1  0
 20 26  1  0
 22 27  2  0
 24 27  2  0
 27 25  1  6
M  CHG  1  25  -1
M  END
>  <washed_aromatic_smiles>  (968) 
COc1cccc(c1)S(=O)(=O)Nc2cccc(c2)C(=O)N3CCCCCC3

>  <name>  (968) 
neg197044

$$$$
neg233050
     RDKit          3D

 31 35  0  0  0  0  0  0  0  0999 V2000
    2.6720    5.6320   48.1990 C   0  0  0  0  0  0  0  0  0  0  0  0
    1.6400    4.7060   47.8830 C   0  0  0  0  0  0  0  0  0  0  0  0
    2.5060   -1.1660   52.3730 C   0  0  0  0  0  0  0  0  0  0  0  0
    3.1900    5.6820   49.4510 C   0  0  0  0  0  0  0  0  0  0  0  0
    2.3060    0.0580   51.7830 C   0  0  0  0  0  0  0  0  0  0  0  0
    1.3870    3.6490   48.6900 C   0  0  0  0  0  0  0  0  0  0  0  0
    4.0570    7.8940   55.4750 C   0  0  0  0  0  0  0  0  0  0  0  0
    4.4050    9.0900   56.0960 C   0  0  0  0  0  0  0  0  0  0  0  0
    2.9720   -1.2200   53.6680 C   0  0  0  0  0  0  0  0  0  0  0  0
    2.8450    1.1580   53.8730 C   0  0  0  0  0  0  0  0  0  0  0  0
    2.9080    3.7290   52.4150 C   0  0  0  0  0  0  0  0  0  0  0  0
    4.0110    9.0050   53.3150 C   0  0  0  0  0  0  0  0  0  0  0  0
    2.7030    4.7670   50.3760 C   0  0  0  0  0  0  0  0  0  0  0  0
    2.5490    1.2360   52.5070 C   0  0  0  0  0  0  0  0  0  0  0  0
    2.8580    4.9250   51.7540 C   0  0  0  0  0  0  0  0  0  0  0  0
    2.0390    3.6190   49.9120 C   0  0  0  0  0  0  0  0  0  0  0  0
    3.8570    7.8420   54.0880 C   0  0  0  0  0  0  0  0  0  0  0  0
    4.5930   10.2320   55.3280 C   0  0  0  0  0  0  0  0  0  0  0  0
    4.4180   10.1840   53.9380 C   0  0  0  0  0  0  0  0  0  0  0  0
    3.1170   -0.0750   54.4310 C   0  0  0  0  0  0  0  0  0  0  0  0
    2.5200    2.5030   51.8090 C   0  0  0  0  0  0  0  0  0  0  0  0
    2.8590    6.2720   52.3560 C   0  0  0  0  0  0  0  0  0  0  0  0
    5.5150   12.4870   55.1790 C   0  0  0  0  0  0  0  0  0  0  0  0
    4.8580   12.6030   53.8040 C   0  0  0  0  0  0  0  0  0  0  0  0
    4.1360    0.8700   56.5250 C   0  0  0  0  0  0  0  0  0  0  0  0
    2.0260    2.4900   50.6120 N   0  0  0  0  0  0  0  0  0  0  0  0
    3.5740    6.5460   53.5090 N   0  0  0  0  0  0  0  0  0  0  0  0
    2.1860    7.1790   51.8870 O   0  0  0  0  0  0  0  0  0  0  0  0
    4.9560   11.4090   55.9610 O   0  0  0  0  0  0  0  0  0  0  0  0
    4.6690   11.3110   53.1710 O   0  0  0  0  0  0  0  0  0  0  0  0
    3.6000   -0.2060   55.7110 O   0  0  0  0  0  0  0  0  0  0  0  0
  1  2  2  0
  1  4  1  0
  2  6  1  0
  3  5  2  0
  3  9  1  0
  4 13  2  0
  5 14  1  0
  6 16  2  0
  7  8  2  0
  7 17  1  0
  8 18  1  0
  9 20  2  0
 10 14  2  0
 10 20  1  0
 11 15  2  0
 11 21  1  0
 12 17  2  0
 12 19  1  0
 13 15  1  0
 13 16  1  0
 14 21  1  0
 15 22  1  0
 16 26  1  0
 17 27  1  0
 18 19  2  0
 18 29  1  0
 19 30  1  0
 20 31  1  0
 21 26  2  0
 22 27  1  0
 22 28  2  0
 23 24  1  0
 23 29  1  0
 24 30  1  0
 25 31  1  0
M  END
>  <washed_aromatic_smiles>  (969) 
COc1cccc(c1)c2cc(c3ccccc3n2)C(=O)Nc4ccc5c(c4)OCCO5

>  <name>  (969) 
neg233050

$$$$
